example_data/case.raw
0,100.0,33,0,0,60.0
GRID OPTIMIZATION COMPETITION
INPUT DATA FILES ARE RAW ROP INL CON
1,'            ',138.0,1,1,1,1,1.0,0.0,1.1,0.9,1.1,0.9
2,'            ',138.0,1,1,1,1,1.0,0.0,1.1,0.9,1.1,0.9
3,'            ',138.0,1,1,1,1,1.0,0.0,1.1,0.9,1.1,0.9
4,'            ',138.0,1,1,1,1,1.0,0.0,1.1,0.9,1.1,0.9
5,'            ',138.0,1,1,1,1,1.0,0.0,1.1,0.9,1.1,0.9
6,'            ',138.0,1,1,1,1,1.0,0.0,1.1,0.9,1.1,0.9
7,'            ',345.0,1,1,1,1,1.0,0.0,1.1,0.9,1.1,0.9
8,'            ',138.0,1,1,1,1,1.0,0.0,1.1,0.9,1.1,0.9
9,'            ',13.8,2,1,1,1,1.0,0.0,1.1,0.9,1.1,0.9
10,'            ',138.0,1,1,1,1,1.0,0.0,1.1,0.9,1.1,0.9
11,'            ',138.0,1,1,1,1,1.0,0.0,1.1,0.9,1.1,0.9
12,'            ',138.0,1,1,1,1,1.0,0.0,1.1,0.9,1.1,0.9
13,'            ',138.0,1,1,1,1,1.0,0.0,1.1,0.9,1.1,0.9
14,'            ',345.0,1,1,1,1,1.0,0.0,1.1,0.9,1.1,0.9
15,'            ',138.0,1,1,1,1,1.0,0.0,1.1,0.9,1.1,0.9
16,'            ',13.8,2,1,1,1,1.0,0.0,1.1,0.9,1.1,0.9
17,'            ',13.8,3,1,1,1,1.0,0.0,1.1,0.9,1.1,0.9
18,'            ',13.8,2,1,1,1,1.0,0.0,1.1,0.9,1.1,0.9
19,'            ',138.0,1,1,1,1,1.0,0.0,1.1,0.9,1.1,0.9
20,'            ',138.0,1,1,1,1,1.0,0.0,1.1,0.9,1.1,0.9
21,'            ',138.0,1,1,1,1,1.0,0.0,1.1,0.9,1.1,0.9
22,'            ',138.0,1,1,1,1,1.0,0.0,1.1,0.9,1.1,0.9
23,'            ',345.0,1,1,1,1,1.0,0.0,1.1,0.9,1.1,0.9
24,'            ',138.0,1,1,1,1,1.0,0.0,1.1,0.9,1.1,0.9
25,'            ',138.0,1,1,1,1,1.0,0.0,1.1,0.9,1.1,0.9
26,'            ',138.0,1,1,1,1,1.0,0.0,1.1,0.9,1.1,0.9
27,'            ',138.0,1,1,1,1,1.0,0.0,1.1,0.9,1.1,0.9
28,'            ',138.0,1,1,1,1,1.0,0.0,1.1,0.9,1.1,0.9
29,'            ',138.0,1,1,1,1,1.0,0.0,1.1,0.9,1.1,0.9
30,'            ',138.0,1,1,1,1,1.0,0.0,1.1,0.9,1.1,0.9
31,'            ',138.0,1,1,1,1,1.0,0.0,1.1,0.9,1.1,0.9
32,'            ',138.0,1,1,1,1,1.0,0.0,1.1,0.9,1.1,0.9
33,'            ',138.0,1,1,1,1,1.0,0.0,1.1,0.9,1.1,0.9
34,'            ',138.0,1,1,1,1,1.0,0.0,1.1,0.9,1.1,0.9
35,'            ',138.0,1,1,1,1,1.0,0.0,1.1,0.9,1.1,0.9
36,'            ',138.0,1,1,1,1,1.0,0.0,1.1,0.9,1.1,0.9
37,'            ',138.0,1,1,1,1,1.0,0.0,1.1,0.9,1.1,0.9
38,'            ',138.0,1,1,1,1,1.0,0.0,1.1,0.9,1.1,0.9
39,'            ',345.0,1,1,1,1,1.0,0.0,1.1,0.9,1.1,0.9
40,'            ',138.0,1,1,1,1,1.0,0.0,1.1,0.9,1.1,0.9
41,'            ',138.0,1,1,1,1,1.0,0.0,1.1,0.9,1.1,0.9
42,'            ',138.0,1,1,1,1,1.0,0.0,1.1,0.9,1.1,0.9
43,'            ',138.0,1,1,1,1,1.0,0.0,1.1,0.9,1.1,0.9
44,'            ',138.0,1,1,1,1,1.0,0.0,1.1,0.9,1.1,0.9
45,'            ',138.0,1,1,1,1,1.0,0.0,1.1,0.9,1.1,0.9
46,'            ',138.0,1,1,1,1,1.0,0.0,1.1,0.9,1.1,0.9
47,'            ',138.0,1,1,1,1,1.0,0.0,1.1,0.9,1.1,0.9
48,'            ',138.0,1,1,1,1,1.0,0.0,1.1,0.9,1.1,0.9
49,'            ',13.8,2,1,1,1,1.0,0.0,1.1,0.9,1.1,0.9
50,'            ',13.8,2,1,1,1,1.0,0.0,1.1,0.9,1.1,0.9
51,'            ',138.0,1,1,1,1,1.0,0.0,1.1,0.9,1.1,0.9
52,'            ',138.0,1,1,1,1,1.0,0.0,1.1,0.9,1.1,0.9
53,'            ',138.0,1,1,1,1,1.0,0.0,1.1,0.9,1.1,0.9
54,'            ',138.0,1,1,1,1,1.0,0.0,1.1,0.9,1.1,0.9
55,'            ',138.0,1,1,1,1,1.0,0.0,1.1,0.9,1.1,0.9
56,'            ',138.0,1,1,1,1,1.0,0.0,1.1,0.9,1.1,0.9
57,'            ',345.0,1,1,1,1,1.0,0.0,1.1,0.9,1.1,0.9
58,'            ',138.0,1,1,1,1,1.0,0.0,1.1,0.9,1.1,0.9
59,'            ',138.0,1,1,1,1,1.0,0.0,1.1,0.9,1.1,0.9
60,'            ',138.0,1,1,1,1,1.0,0.0,1.1,0.9,1.1,0.9
61,'            ',138.0,1,1,1,1,1.0,0.0,1.1,0.9,1.1,0.9
62,'            ',138.0,1,1,1,1,1.0,0.0,1.1,0.9,1.1,0.9
63,'            ',13.8,2,1,1,1,1.0,0.0,1.1,0.9,1.1,0.9
64,'            ',138.0,1,1,1,1,1.0,0.0,1.1,0.9,1.1,0.9
65,'            ',345.0,1,1,1,1,1.0,0.0,1.1,0.9,1.1,0.9
66,'            ',138.0,1,1,1,1,1.0,0.0,1.1,0.9,1.1,0.9
67,'            ',138.0,1,1,1,1,1.0,0.0,1.1,0.9,1.1,0.9
68,'            ',138.0,1,1,1,1,1.0,0.0,1.1,0.9,1.1,0.9
69,'            ',138.0,1,1,1,1,1.0,0.0,1.1,0.9,1.1,0.9
70,'            ',138.0,1,1,1,1,1.0,0.0,1.1,0.9,1.1,0.9
71,'            ',13.8,2,1,1,1,1.0,0.0,1.1,0.9,1.1,0.9
72,'            ',13.8,2,1,1,1,1.0,0.0,1.1,0.9,1.1,0.9
73,'            ',13.8,2,1,1,1,1.0,0.0,1.1,0.9,1.1,0.9
74,'            ',138.0,1,1,1,1,1.0,0.0,1.1,0.9,1.1,0.9
75,'            ',138.0,1,1,1,1,1.0,0.0,1.1,0.9,1.1,0.9
76,'            ',138.0,1,1,1,1,1.0,0.0,1.1,0.9,1.1,0.9
77,'            ',138.0,1,1,1,1,1.0,0.0,1.1,0.9,1.1,0.9
78,'            ',138.0,1,1,1,1,1.0,0.0,1.1,0.9,1.1,0.9
79,'            ',138.0,1,1,1,1,1.0,0.0,1.1,0.9,1.1,0.9
80,'            ',345.0,1,1,1,1,1.0,0.0,1.1,0.9,1.1,0.9
81,'            ',138.0,1,1,1,1,1.0,0.0,1.1,0.9,1.1,0.9
82,'            ',13.8,2,1,1,1,1.0,0.0,1.1,0.9,1.1,0.9
83,'            ',138.0,1,1,1,1,1.0,0.0,1.1,0.9,1.1,0.9
84,'            ',138.0,1,1,1,1,1.0,0.0,1.1,0.9,1.1,0.9
85,'            ',138.0,1,1,1,1,1.0,0.0,1.1,0.9,1.1,0.9
86,'            ',138.0,1,1,1,1,1.0,0.0,1.1,0.9,1.1,0.9
87,'            ',138.0,1,1,1,1,1.0,0.0,1.1,0.9,1.1,0.9
88,'            ',138.0,1,1,1,1,1.0,0.0,1.1,0.9,1.1,0.9
89,'            ',138.0,1,1,1,1,1.0,0.0,1.1,0.9,1.1,0.9
90,'            ',138.0,1,1,1,1,1.0,0.0,1.1,0.9,1.1,0.9
91,'            ',138.0,1,1,1,1,1.0,0.0,1.1,0.9,1.1,0.9
92,'            ',138.0,1,1,1,1,1.0,0.0,1.1,0.9,1.1,0.9
93,'            ',138.0,1,1,1,1,1.0,0.0,1.1,0.9,1.1,0.9
94,'            ',138.0,1,1,1,1,1.0,0.0,1.1,0.9,1.1,0.9
95,'            ',138.0,1,1,1,1,1.0,0.0,1.1,0.9,1.1,0.9
96,'            ',138.0,1,1,1,1,1.0,0.0,1.1,0.9,1.1,0.9
97,'            ',138.0,1,1,1,1,1.0,0.0,1.1,0.9,1.1,0.9
98,'            ',138.0,1,1,1,1,1.0,0.0,1.1,0.9,1.1,0.9
99,'            ',138.0,1,1,1,1,1.0,0.0,1.1,0.9,1.1,0.9
100,'            ',138.0,1,1,1,1,1.0,0.0,1.1,0.9,1.1,0.9
101,'            ',138.0,1,1,1,1,1.0,0.0,1.1,0.9,1.1,0.9
102,'            ',138.0,1,1,1,1,1.0,0.0,1.1,0.9,1.1,0.9
103,'            ',138.0,1,1,1,1,1.0,0.0,1.1,0.9,1.1,0.9
104,'            ',138.0,1,1,1,1,1.0,0.0,1.1,0.9,1.1,0.9
105,'            ',138.0,1,1,1,1,1.0,0.0,1.1,0.9,1.1,0.9
106,'            ',138.0,1,1,1,1,1.0,0.0,1.1,0.9,1.1,0.9
107,'            ',138.0,1,1,1,1,1.0,0.0,1.1,0.9,1.1,0.9
108,'            ',138.0,1,1,1,1,1.0,0.0,1.1,0.9,1.1,0.9
109,'            ',138.0,1,1,1,1,1.0,0.0,1.1,0.9,1.1,0.9
110,'            ',138.0,1,1,1,1,1.0,0.0,1.1,0.9,1.1,0.9
111,'            ',138.0,1,1,1,1,1.0,0.0,1.1,0.9,1.1,0.9
112,'            ',138.0,1,1,1,1,1.0,0.0,1.1,0.9,1.1,0.9
113,'            ',138.0,1,1,1,1,1.0,0.0,1.1,0.9,1.1,0.9
114,'            ',138.0,1,1,1,1,1.0,0.0,1.1,0.9,1.1,0.9
115,'            ',138.0,1,1,1,1,1.0,0.0,1.1,0.9,1.1,0.9
116,'            ',138.0,1,1,1,1,1.0,0.0,1.1,0.9,1.1,0.9
117,'            ',138.0,1,1,1,1,1.0,0.0,1.1,0.9,1.1,0.9
118,'            ',138.0,1,1,1,1,1.0,0.0,1.1,0.9,1.1,0.9
119,'            ',138.0,1,1,1,1,1.0,0.0,1.1,0.9,1.1,0.9
120,'            ',138.0,1,1,1,1,1.0,0.0,1.1,0.9,1.1,0.9
121,'            ',138.0,1,1,1,1,1.0,0.0,1.1,0.9,1.1,0.9
122,'            ',138.0,1,1,1,1,1.0,0.0,1.1,0.9,1.1,0.9
123,'            ',345.0,1,1,1,1,1.0,0.0,1.1,0.9,1.1,0.9
124,'            ',138.0,1,1,1,1,1.0,0.0,1.1,0.9,1.1,0.9
125,'            ',13.8,2,1,1,1,1.0,0.0,1.1,0.9,1.1,0.9
126,'            ',13.8,2,1,1,1,1.0,0.0,1.1,0.9,1.1,0.9
127,'            ',13.8,2,1,1,1,1.0,0.0,1.1,0.9,1.1,0.9
128,'            ',13.8,2,1,1,1,1.0,0.0,1.1,0.9,1.1,0.9
129,'            ',138.0,1,1,1,1,1.0,0.0,1.1,0.9,1.1,0.9
130,'            ',138.0,1,1,1,1,1.0,0.0,1.1,0.9,1.1,0.9
131,'            ',138.0,1,1,1,1,1.0,0.0,1.1,0.9,1.1,0.9
132,'            ',138.0,1,1,1,1,1.0,0.0,1.1,0.9,1.1,0.9
133,'            ',138.0,1,1,1,1,1.0,0.0,1.1,0.9,1.1,0.9
134,'            ',138.0,1,1,1,1,1.0,0.0,1.1,0.9,1.1,0.9
135,'            ',138.0,1,1,1,1,1.0,0.0,1.1,0.9,1.1,0.9
136,'            ',138.0,1,1,1,1,1.0,0.0,1.1,0.9,1.1,0.9
137,'            ',138.0,1,1,1,1,1.0,0.0,1.1,0.9,1.1,0.9
138,'            ',138.0,1,1,1,1,1.0,0.0,1.1,0.9,1.1,0.9
139,'            ',138.0,1,1,1,1,1.0,0.0,1.1,0.9,1.1,0.9
140,'            ',138.0,1,1,1,1,1.0,0.0,1.1,0.9,1.1,0.9
141,'            ',138.0,1,1,1,1,1.0,0.0,1.1,0.9,1.1,0.9
142,'            ',138.0,1,1,1,1,1.0,0.0,1.1,0.9,1.1,0.9
143,'            ',138.0,1,1,1,1,1.0,0.0,1.1,0.9,1.1,0.9
144,'            ',13.8,2,1,1,1,1.0,0.0,1.1,0.9,1.1,0.9
145,'            ',13.8,2,1,1,1,1.0,0.0,1.1,0.9,1.1,0.9
146,'            ',345.0,1,1,1,1,1.0,0.0,1.1,0.9,1.1,0.9
147,'            ',138.0,1,1,1,1,1.0,0.0,1.1,0.9,1.1,0.9
148,'            ',138.0,1,1,1,1,1.0,0.0,1.1,0.9,1.1,0.9
149,'            ',138.0,1,1,1,1,1.0,0.0,1.1,0.9,1.1,0.9
150,'            ',138.0,1,1,1,1,1.0,0.0,1.1,0.9,1.1,0.9
151,'            ',345.0,1,1,1,1,1.0,0.0,1.1,0.9,1.1,0.9
152,'            ',138.0,1,1,1,1,1.0,0.0,1.1,0.9,1.1,0.9
153,'            ',138.0,1,1,1,1,1.0,0.0,1.1,0.9,1.1,0.9
154,'            ',138.0,1,1,1,1,1.0,0.0,1.1,0.9,1.1,0.9
155,'            ',138.0,1,1,1,1,1.0,0.0,1.1,0.9,1.1,0.9
156,'            ',138.0,1,1,1,1,1.0,0.0,1.1,0.9,1.1,0.9
157,'            ',138.0,1,1,1,1,1.0,0.0,1.1,0.9,1.1,0.9
158,'            ',138.0,1,1,1,1,1.0,0.0,1.1,0.9,1.1,0.9
159,'            ',138.0,1,1,1,1,1.0,0.0,1.1,0.9,1.1,0.9
160,'            ',138.0,1,1,1,1,1.0,0.0,1.1,0.9,1.1,0.9
161,'            ',138.0,1,1,1,1,1.0,0.0,1.1,0.9,1.1,0.9
162,'            ',345.0,1,1,1,1,1.0,0.0,1.1,0.9,1.1,0.9
163,'            ',138.0,1,1,1,1,1.0,0.0,1.1,0.9,1.1,0.9
164,'            ',138.0,1,1,1,1,1.0,0.0,1.1,0.9,1.1,0.9
165,'            ',345.0,1,1,1,1,1.0,0.0,1.1,0.9,1.1,0.9
166,'            ',138.0,1,1,1,1,1.0,0.0,1.1,0.9,1.1,0.9
167,'            ',13.8,2,1,1,1,1.0,0.0,1.1,0.9,1.1,0.9
168,'            ',13.8,2,1,1,1,1.0,0.0,1.1,0.9,1.1,0.9
169,'            ',13.8,2,1,1,1,1.0,0.0,1.1,0.9,1.1,0.9
170,'            ',138.0,1,1,1,1,1.0,0.0,1.1,0.9,1.1,0.9
171,'            ',138.0,1,1,1,1,1.0,0.0,1.1,0.9,1.1,0.9
172,'            ',138.0,1,1,1,1,1.0,0.0,1.1,0.9,1.1,0.9
173,'            ',138.0,1,1,1,1,1.0,0.0,1.1,0.9,1.1,0.9
174,'            ',138.0,1,1,1,1,1.0,0.0,1.1,0.9,1.1,0.9
175,'            ',345.0,1,1,1,1,1.0,0.0,1.1,0.9,1.1,0.9
176,'            ',138.0,1,1,1,1,1.0,0.0,1.1,0.9,1.1,0.9
177,'            ',138.0,1,1,1,1,1.0,0.0,1.1,0.9,1.1,0.9
178,'            ',138.0,1,1,1,1,1.0,0.0,1.1,0.9,1.1,0.9
179,'            ',138.0,1,1,1,1,1.0,0.0,1.1,0.9,1.1,0.9
180,'            ',138.0,1,1,1,1,1.0,0.0,1.1,0.9,1.1,0.9
181,'            ',138.0,1,1,1,1,1.0,0.0,1.1,0.9,1.1,0.9
182,'            ',138.0,1,1,1,1,1.0,0.0,1.1,0.9,1.1,0.9
183,'            ',138.0,1,1,1,1,1.0,0.0,1.1,0.9,1.1,0.9
184,'            ',138.0,1,1,1,1,1.0,0.0,1.1,0.9,1.1,0.9
185,'            ',138.0,1,1,1,1,1.0,0.0,1.1,0.9,1.1,0.9
186,'            ',138.0,1,1,1,1,1.0,0.0,1.1,0.9,1.1,0.9
187,'            ',138.0,1,1,1,1,1.0,0.0,1.1,0.9,1.1,0.9
188,'            ',138.0,1,1,1,1,1.0,0.0,1.1,0.9,1.1,0.9
189,'            ',138.0,1,1,1,1,1.0,0.0,1.1,0.9,1.1,0.9
190,'            ',138.0,1,1,1,1,1.0,0.0,1.1,0.9,1.1,0.9
191,'            ',138.0,1,1,1,1,1.0,0.0,1.1,0.9,1.1,0.9
192,'            ',138.0,1,1,1,1,1.0,0.0,1.1,0.9,1.1,0.9
193,'            ',138.0,1,1,1,1,1.0,0.0,1.1,0.9,1.1,0.9
194,'            ',138.0,1,1,1,1,1.0,0.0,1.1,0.9,1.1,0.9
195,'            ',345.0,1,1,1,1,1.0,0.0,1.1,0.9,1.1,0.9
196,'            ',138.0,1,1,1,1,1.0,0.0,1.1,0.9,1.1,0.9
197,'            ',13.8,2,1,1,1,1.0,0.0,1.1,0.9,1.1,0.9
198,'            ',13.8,2,1,1,1,1.0,0.0,1.1,0.9,1.1,0.9
199,'            ',138.0,1,1,1,1,1.0,0.0,1.1,0.9,1.1,0.9
200,'            ',138.0,1,1,1,1,1.0,0.0,1.1,0.9,1.1,0.9
...
0 / END OF BUS DATA BEGIN LOAD DATA
2,'1',1,1,1,19.46,5.189,0.0,0.0,0.0,0.0,1,1,0
4,'1',1,1,1,60.327,16.087,0.0,0.0,0.0,0.0,1,1,0
6,'1',1,1,1,1.179,0.315,0.0,0.0,0.0,0.0,1,1,0
11,'1',1,1,1,0.979,0.261,0.0,0.0,0.0,0.0,1,1,0
13,'1',1,1,1,15.631,4.168,0.0,0.0,0.0,0.0,1,1,0
20,'1',1,1,1,1.799,0.48,0.0,0.0,0.0,0.0,1,1,0
22,'1',1,1,1,67.606,18.028,0.0,0.0,0.0,0.0,1,1,0
25,'1',1,1,1,0.381,0.102,0.0,0.0,0.0,0.0,1,1,0
26,'1',1,1,1,3.62,0.965,0.0,0.0,0.0,0.0,1,1,0
28,'1',1,1,1,10.516,2.804,0.0,0.0,0.0,0.0,1,1,0
30,'1',1,1,1,45.452,12.121,0.0,0.0,0.0,0.0,1,1,0
32,'1',1,1,1,3.868,1.031,0.0,0.0,0.0,0.0,1,1,0
34,'1',1,1,1,9.901,2.64,0.0,0.0,0.0,0.0,1,1,0
36,'1',1,1,1,17.17,4.579,0.0,0.0,0.0,0.0,1,1,0
38,'1',1,1,1,0.047,0.013,0.0,0.0,0.0,0.0,1,1,0
41,'1',1,1,1,9.69,2.584,0.0,0.0,0.0,0.0,1,1,0
43,'1',1,1,1,1.767,0.471,0.0,0.0,0.0,0.0,1,1,0
45,'1',1,1,1,0.923,0.246,0.0,0.0,0.0,0.0,1,1,0
47,'1',1,1,1,7.254,1.934,0.0,0.0,0.0,0.0,1,1,0
51,'1',1,1,1,0.14,0.037,0.0,0.0,0.0,0.0,1,1,0
52,'1',1,1,1,9.263,2.47,0.0,0.0,0.0,0.0,1,1,0
54,'1',1,1,1,15.826,4.22,0.0,0.0,0.0,0.0,1,1,0
56,'1',1,1,1,0.892,0.238,0.0,0.0,0.0,0.0,1,1,0
59,'1',1,1,1,59.284,15.809,0.0,0.0,0.0,0.0,1,1,0
61,'1',1,1,1,0.034,0.009,0.0,0.0,0.0,0.0,1,1,0
64,'1',1,1,1,15.811,4.216,0.0,0.0,0.0,0.0,1,1,0
67,'1',1,1,1,1.81,0.483,0.0,0.0,0.0,0.0,1,1,0
69,'1',1,1,1,2.834,0.756,0.0,0.0,0.0,0.0,1,1,0
75,'1',1,1,1,2.41,0.643,0.0,0.0,0.0,0.0,1,1,0
77,'1',1,1,1,2.551,0.68,0.0,0.0,0.0,0.0,1,1,0
79,'1',1,1,1,0.152,0.041,0.0,0.0,0.0,0.0,1,1,0
84,'1',1,1,1,24.321,6.486,0.0,0.0,0.0,0.0,1,1,0
86,'1',1,1,1,6.968,1.858,0.0,0.0,0.0,0.0,1,1,0
88,'1',1,1,1,1.928,0.514,0.0,0.0,0.0,0.0,1,1,0
90,'1',1,1,1,2.683,0.715,0.0,0.0,0.0,0.0,1,1,0
92,'1',1,1,1,25.95,6.92,0.0,0.0,0.0,0.0,1,1,0
94,'1',1,1,1,2.371,0.632,0.0,0.0,0.0,0.0,1,1,0
96,'1',1,1,1,13.568,3.618,0.0,0.0,0.0,0.0,1,1,0
98,'1',1,1,1,14.802,3.947,0.0,0.0,0.0,0.0,1,1,0
100,'1',1,1,1,2.259,0.602,0.0,0.0,0.0,0.0,1,1,0
101,'1',1,1,1,0.149,0.04,0.0,0.0,0.0,0.0,1,1,0
103,'1',1,1,1,15.368,4.098,0.0,0.0,0.0,0.0,1,1,0
105,'1',1,1,1,31.818,8.485,0.0,0.0,0.0,0.0,1,1,0
107,'1',1,1,1,6.339,1.69,0.0,0.0,0.0,0.0,1,1,0
109,'1',1,1,1,7.951,2.12,0.0,0.0,0.0,0.0,1,1,0
111,'1',1,1,1,10.408,2.776,0.0,0.0,0.0,0.0,1,1,0
113,'1',1,1,1,18.215,4.857,0.0,0.0,0.0,0.0,1,1,0
115,'1',1,1,1,2.004,0.535,0.0,0.0,0.0,0.0,1,1,0
116,'1',1,1,1,1.227,0.327,0.0,0.0,0.0,0.0,1,1,0
118,'1',1,1,1,3.498,0.933,0.0,0.0,0.0,0.0,1,1,0
120,'1',1,1,1,13.313,3.55,0.0,0.0,0.0,0.0,1,1,0
122,'1',1,1,1,24.262,6.47,0.0,0.0,0.0,0.0,1,1,0
130,'1',1,1,1,43.428,11.581,0.0,0.0,0.0,0.0,1,1,0
132,'1',1,1,1,4.211,1.123,0.0,0.0,0.0,0.0,1,1,0
134,'1',1,1,1,17.018,4.538,0.0,0.0,0.0,0.0,1,1,0
136,'1',1,1,1,12.165,3.244,0.0,0.0,0.0,0.0,1,1,0
138,'1',1,1,1,31.173,8.313,0.0,0.0,0.0,0.0,1,1,0
140,'1',1,1,1,0.043,0.011,0.0,0.0,0.0,0.0,1,1,0
142,'1',1,1,1,59.224,15.793,0.0,0.0,0.0,0.0,1,1,0
148,'1',1,1,1,26.106,6.962,0.0,0.0,0.0,0.0,1,1,0
150,'1',1,1,1,0.595,0.159,0.0,0.0,0.0,0.0,1,1,0
153,'1',1,1,1,15.566,4.151,0.0,0.0,0.0,0.0,1,1,0
155,'1',1,1,1,11.169,2.979,0.0,0.0,0.0,0.0,1,1,0
157,'1',1,1,1,44.358,11.829,0.0,0.0,0.0,0.0,1,1,0
159,'1',1,1,1,10.389,2.77,0.0,0.0,0.0,0.0,1,1,0
161,'1',1,1,1,10.279,2.741,0.0,0.0,0.0,0.0,1,1,0
164,'1',1,1,1,44.625,11.9,0.0,0.0,0.0,0.0,1,1,0
171,'1',1,1,1,4.938,1.317,0.0,0.0,0.0,0.0,1,1,0
173,'1',1,1,1,1.242,0.331,0.0,0.0,0.0,0.0,1,1,0
174,'1',1,1,1,2.893,0.772,0.0,0.0,0.0,0.0,1,1,0
177,'1',1,1,1,3.223,0.86,0.0,0.0,0.0,0.0,1,1,0
178,'1',1,1,1,2.501,0.667,0.0,0.0,0.0,0.0,1,1,0
180,'1',1,1,1,6.427,1.714,0.0,0.0,0.0,0.0,1,1,0
182,'1',1,1,1,32.968,8.792,0.0,0.0,0.0,0.0,1,1,0
184,'1',1,1,1,11.077,2.954,0.0,0.0,0.0,0.0,1,1,0
186,'1',1,1,1,18.097,4.826,0.0,0.0,0.0,0.0,1,1,0
188,'1',1,1,1,5.023,1.34,0.0,0.0,0.0,0.0,1,1,0
190,'1',1,1,1,5.573,1.486,0.0,0.0,0.0,0.0,1,1,0
192,'1',1,1,1,6.511,1.736,0.0,0.0,0.0,0.0,1,1,0
194,'1',1,1,1,11.365,3.031,0.0,0.0,0.0,0.0,1,1,0
199,'1',1,1,1,39.279,10.474,0.0,0.0,0.0,0.0,1,1,0
201,'1',1,1,1,4.041,1.078,0.0,0.0,0.0,0.0,1,1,0
203,'1',1,1,1,1.857,0.495,0.0,0.0,0.0,0.0,1,1,0
204,'1',1,1,1,18.087,4.823,0.0,0.0,0.0,0.0,1,1,0
206,'1',1,1,1,1.192,0.318,0.0,0.0,0.0,0.0,1,1,0
207,'1',1,1,1,8.94,2.384,0.0,0.0,0.0,0.0,1,1,0
209,'1',1,1,1,34.432,9.182,0.0,0.0,0.0,0.0,1,1,0
211,'1',1,1,1,5.728,1.527,0.0,0.0,0.0,0.0,1,1,0
213,'1',1,1,1,38.609,10.296,0.0,0.0,0.0,0.0,1,1,0
215,'1',1,1,1,33.459,8.922,0.0,0.0,0.0,0.0,1,1,0
217,'1',1,1,1,23.178,6.181,0.0,0.0,0.0,0.0,1,1,0
219,'1',1,1,1,0.132,0.035,0.0,0.0,0.0,0.0,1,1,0
227,'1',1,1,1,2.165,0.577,0.0,0.0,0.0,0.0,1,1,0
229,'1',1,1,1,21.585,5.756,0.0,0.0,0.0,0.0,1,1,0
234,'1',1,1,1,27.263,7.27,0.0,0.0,0.0,0.0,1,1,0
237,'1',1,1,1,1.074,0.286,0.0,0.0,0.0,0.0,1,1,0
239,'1',1,1,1,6.539,1.744,0.0,0.0,0.0,0.0,1,1,0
241,'1',1,1,1,7.818,2.085,0.0,0.0,0.0,0.0,1,1,0
243,'1',1,1,1,33.856,9.028,0.0,0.0,0.0,0.0,1,1,0
245,'1',1,1,1,4.687,1.25,0.0,0.0,0.0,0.0,1,1,0
252,'1',1,1,1,49.923,13.313,0.0,0.0,0.0,0.0,1,1,0
259,'1',1,1,1,3.432,0.915,0.0,0.0,0.0,0.0,1,1,0
261,'1',1,1,1,7.456,1.988,0.0,0.0,0.0,0.0,1,1,0
266,'1',1,1,1,28.089,7.49,0.0,0.0,0.0,0.0,1,1,0
268,'1',1,1,1,46.398,12.373,0.0,0.0,0.0,0.0,1,1,0
270,'1',1,1,1,2.694,0.718,0.0,0.0,0.0,0.0,1,1,0
273,'1',1,1,1,3.759,1.003,0.0,0.0,0.0,0.0,1,1,0
277,'1',1,1,1,0.184,0.049,0.0,0.0,0.0,0.0,1,1,0
278,'1',1,1,1,2.623,0.699,0.0,0.0,0.0,0.0,1,1,0
280,'1',1,1,1,7.127,1.901,0.0,0.0,0.0,0.0,1,1,0
282,'1',1,1,1,46.811,12.483,0.0,0.0,0.0,0.0,1,1,0
284,'1',1,1,1,12.931,3.448,0.0,0.0,0.0,0.0,1,1,0
286,'1',1,1,1,3.299,0.88,0.0,0.0,0.0,0.0,1,1,0
288,'1',1,1,1,26.419,7.045,0.0,0.0,0.0,0.0,1,1,0
290,'1',1,1,1,1.473,0.393,0.0,0.0,0.0,0.0,1,1,0
292,'1',1,1,1,3.463,0.923,0.0,0.0,0.0,0.0,1,1,0
294,'1',1,1,1,10.141,2.704,0.0,0.0,0.0,0.0,1,1,0
296,'1',1,1,1,1.301,0.347,0.0,0.0,0.0,0.0,1,1,0
299,'1',1,1,1,5.77,1.539,0.0,0.0,0.0,0.0,1,1,0
303,'1',1,1,1,31.846,8.492,0.0,0.0,0.0,0.0,1,1,0
307,'1',1,1,1,31.987,8.53,0.0,0.0,0.0,0.0,1,1,0
309,'1',1,1,1,3.577,0.954,0.0,0.0,0.0,0.0,1,1,0
311,'1',1,1,1,17.491,4.664,0.0,0.0,0.0,0.0,1,1,0
313,'1',1,1,1,4.926,1.314,0.0,0.0,0.0,0.0,1,1,0
315,'1',1,1,1,0.071,0.019,0.0,0.0,0.0,0.0,1,1,0
317,'1',1,1,1,1.378,0.367,0.0,0.0,0.0,0.0,1,1,0
321,'1',1,1,1,68.39,18.237,0.0,0.0,0.0,0.0,1,1,0
323,'1',1,1,1,19.042,5.078,0.0,0.0,0.0,0.0,1,1,0
325,'1',1,1,1,43.52,11.605,0.0,0.0,0.0,0.0,1,1,0
327,'1',1,1,1,55.044,14.678,0.0,0.0,0.0,0.0,1,1,0
329,'1',1,1,1,10.383,2.769,0.0,0.0,0.0,0.0,1,1,0
331,'1',1,1,1,9.554,2.548,0.0,0.0,0.0,0.0,1,1,0
334,'1',1,1,1,0.084,0.022,0.0,0.0,0.0,0.0,1,1,0
335,'1',1,1,1,0.139,0.037,0.0,0.0,0.0,0.0,1,1,0
337,'1',1,1,1,2.082,0.555,0.0,0.0,0.0,0.0,1,1,0
339,'1',1,1,1,27.568,7.352,0.0,0.0,0.0,0.0,1,1,0
341,'1',1,1,1,10.189,2.717,0.0,0.0,0.0,0.0,1,1,0
343,'1',1,1,1,0.995,0.265,0.0,0.0,0.0,0.0,1,1,0
344,'1',1,1,1,0.962,0.257,0.0,0.0,0.0,0.0,1,1,0
346,'1',1,1,1,21.634,5.769,0.0,0.0,0.0,0.0,1,1,0
348,'1',1,1,1,36.342,9.691,0.0,0.0,0.0,0.0,1,1,0
355,'1',1,1,1,9.077,2.421,0.0,0.0,0.0,0.0,1,1,0
357,'1',1,1,1,23.444,6.252,0.0,0.0,0.0,0.0,1,1,0
359,'1',1,1,1,5.777,1.541,0.0,0.0,0.0,0.0,1,1,0
364,'1',1,1,1,5.086,1.356,0.0,0.0,0.0,0.0,1,1,0
366,'1',1,1,1,25.683,6.849,0.0,0.0,0.0,0.0,1,1,0
368,'1',1,1,1,4.571,1.219,0.0,0.0,0.0,0.0,1,1,0
370,'1',1,1,1,14.208,3.789,0.0,0.0,0.0,0.0,1,1,0
373,'1',1,1,1,13.11,3.496,0.0,0.0,0.0,0.0,1,1,0
375,'1',1,1,1,11.259,3.003,0.0,0.0,0.0,0.0,1,1,0
377,'1',1,1,1,15.104,4.028,0.0,0.0,0.0,0.0,1,1,0
379,'1',1,1,1,4.776,1.274,0.0,0.0,0.0,0.0,1,1,0
381,'1',1,1,1,1.693,0.451,0.0,0.0,0.0,0.0,1,1,0
383,'1',1,1,1,5.004,1.334,0.0,0.0,0.0,0.0,1,1,0
385,'1',1,1,1,15.404,4.108,0.0,0.0,0.0,0.0,1,1,0
397,'1',1,1,1,15.944,4.252,0.0,0.0,0.0,0.0,1,1,0
398,'1',1,1,1,6.691,1.784,0.0,0.0,0.0,0.0,1,1,0
400,'1',1,1,1,9.119,2.432,0.0,0.0,0.0,0.0,1,1,0
402,'1',1,1,1,32.429,8.648,0.0,0.0,0.0,0.0,1,1,0
404,'1',1,1,1,7.83,2.088,0.0,0.0,0.0,0.0,1,1,0
406,'1',1,1,1,1.927,0.514,0.0,0.0,0.0,0.0,1,1,0
416,'1',1,1,1,2.757,0.735,0.0,0.0,0.0,0.0,1,1,0
418,'1',1,1,1,26.759,7.136,0.0,0.0,0.0,0.0,1,1,0
420,'1',1,1,1,2.07,0.552,0.0,0.0,0.0,0.0,1,1,0
422,'1',1,1,1,22.359,5.962,0.0,0.0,0.0,0.0,1,1,0
424,'1',1,1,1,57.664,15.377,0.0,0.0,0.0,0.0,1,1,0
427,'1',1,1,1,5.716,1.524,0.0,0.0,0.0,0.0,1,1,0
446,'1',1,1,1,37.304,9.948,0.0,0.0,0.0,0.0,1,1,0
448,'1',1,1,1,9.618,2.565,0.0,0.0,0.0,0.0,1,1,0
450,'1',1,1,1,0.187,0.05,0.0,0.0,0.0,0.0,1,1,0
451,'1',1,1,1,0.369,0.099,0.0,0.0,0.0,0.0,1,1,0
452,'1',1,1,1,4.098,1.093,0.0,0.0,0.0,0.0,1,1,0
459,'1',1,1,1,27.335,7.289,0.0,0.0,0.0,0.0,1,1,0
460,'1',1,1,1,4.402,1.174,0.0,0.0,0.0,0.0,1,1,0
461,'1',1,1,1,38.582,10.289,0.0,0.0,0.0,0.0,1,1,0
465,'1',1,1,1,2.092,0.558,0.0,0.0,0.0,0.0,1,1,0
466,'1',1,1,1,7.242,1.931,0.0,0.0,0.0,0.0,1,1,0
467,'1',1,1,1,0.322,0.086,0.0,0.0,0.0,0.0,1,1,0
468,'1',1,1,1,1.501,0.4,0.0,0.0,0.0,0.0,1,1,0
469,'1',1,1,1,54.066,14.418,0.0,0.0,0.0,0.0,1,1,0
470,'1',1,1,1,16.983,4.529,0.0,0.0,0.0,0.0,1,1,0
472,'1',1,1,1,8.307,2.215,0.0,0.0,0.0,0.0,1,1,0
473,'1',1,1,1,0.399,0.106,0.0,0.0,0.0,0.0,1,1,0
474,'1',1,1,1,70.341,18.757,0.0,0.0,0.0,0.0,1,1,0
475,'1',1,1,1,0.074,0.02,0.0,0.0,0.0,0.0,1,1,0
476,'1',1,1,1,27.214,7.257,0.0,0.0,0.0,0.0,1,1,0
477,'1',1,1,1,5.235,1.396,0.0,0.0,0.0,0.0,1,1,0
478,'1',1,1,1,3.361,0.896,0.0,0.0,0.0,0.0,1,1,0
485,'1',1,1,1,12.675,3.38,0.0,0.0,0.0,0.0,1,1,0
486,'1',1,1,1,31.16,8.309,0.0,0.0,0.0,0.0,1,1,0
487,'1',1,1,1,4.656,1.242,0.0,0.0,0.0,0.0,1,1,0
488,'1',1,1,1,41.179,10.981,0.0,0.0,0.0,0.0,1,1,0
489,'1',1,1,1,1.458,0.389,0.0,0.0,0.0,0.0,1,1,0
490,'1',1,1,1,11.896,3.172,0.0,0.0,0.0,0.0,1,1,0
491,'1',1,1,1,54.344,14.492,0.0,0.0,0.0,0.0,1,1,0
492,'1',1,1,1,21.856,5.828,0.0,0.0,0.0,0.0,1,1,0
493,'1',1,1,1,1.486,0.396,0.0,0.0,0.0,0.0,1,1,0
495,'1',1,1,1,12.561,3.35,0.0,0.0,0.0,0.0,1,1,0
499,'1',1,1,1,55.615,14.831,0.0,0.0,0.0,0.0,1,1,0
500,'1',1,1,1,9.28,2.474,0.0,0.0,0.0,0.0,1,1,0
0 / END OF LOAD DATA BEGIN FIXED SHUNT DATA
0 / END OF FIXED SHUNT DATA BEGIN GENERATOR DATA
9,'1',0.0,0.0,359.659,-94.16,1.04,0,0.0,0.0,1.0,0.0,0.0,1.0,1,1.0,771.8,231.54,1,1.0,0,1.0,0,1.0,0,1.0,0,1.0
16,'1',0.0,0.0,163.558,-36.445,1.04,0,0.0,0.0,1.0,0.0,0.0,1.0,1,1.0,444.45,133.335,1,1.0,0,1.0,0,1.0,0,1.0,0,1.0
17,'1',0.0,0.0,327.115,-72.89,1.04,0,0.0,0.0,1.0,0.0,0.0,1.0,1,1.0,888.9,266.67,1,1.0,0,1.0,0,1.0,0,1.0,0,1.0
18,'1',0.0,0.0,57.997,-12.923,1.04,0,0.0,0.0,1.0,0.0,0.0,1.0,1,1.0,157.6,47.28,1,1.0,0,1.0,0,1.0,0,1.0,0,1.0
49,'1',0.0,0.0,0.606,-0.159,1.0223153,0,0.0,0.0,1.0,0.0,0.0,1.0,1,1.0,1.3,0.39,1,1.0,0,1.0,0,1.0,0,1.0,0,1.0
50,'1',0.0,0.0,1.212,-0.317,1.0226064,0,0.0,0.0,1.0,0.0,0.0,1.0,1,1.0,2.6,0.78,1,1.0,0,1.0,0,1.0,0,1.0,0,1.0
63,'1',0.0,0.0,1.629,-0.355,1.0170401,0,0.0,0.0,1.0,0.0,0.0,1.0,0,1.0,3.2,0.96,1,1.0,0,1.0,0,1.0,0,1.0,0,1.0
71,'1',0.0,0.0,1.536,-0.196,1.0272579,0,0.0,0.0,1.0,0.0,0.0,1.0,1,1.0,0.268,0.0,1,1.0,0,1.0,0,1.0,0,1.0,0,1.0
72,'1',0.0,0.0,0.768,-0.098,1.0276725,0,0.0,0.0,1.0,0.0,0.0,1.0,1,1.0,0.134,0.0,1,1.0,0,1.0,0,1.0,0,1.0,0,1.0
73,'1',0.0,0.0,0.538,-0.069,1.028027,0,0.0,0.0,1.0,0.0,0.0,1.0,1,1.0,0.094,0.0,1,1.0,0,1.0,0,1.0,0,1.0,0,1.0
82,'1',0.0,0.0,138.97,-17.733,1.04,0,0.0,0.0,1.0,0.0,0.0,1.0,1,1.0,24.279,0.0,1,1.0,0,1.0,0,1.0,0,1.0,0,1.0
125,'1',0.0,0.0,62.208,-7.938,1.04,0,0.0,0.0,1.0,0.0,0.0,1.0,1,1.0,10.868,0.0,1,1.0,0,1.0,0,1.0,0,1.0,0,1.0
126,'1',0.0,0.0,62.208,-7.938,1.04,0,0.0,0.0,1.0,0.0,0.0,1.0,1,1.0,10.868,0.0,1,1.0,0,1.0,0,1.0,0,1.0,0,1.0
127,'1',0.0,0.0,62.208,-7.938,1.04,0,0.0,0.0,1.0,0.0,0.0,1.0,1,1.0,10.868,0.0,1,1.0,0,1.0,0,1.0,0,1.0,0,1.0
128,'1',0.0,0.0,62.208,-7.938,1.04,0,0.0,0.0,1.0,0.0,0.0,1.0,1,1.0,10.868,0.0,1,1.0,0,1.0,0,1.0,0,1.0,0,1.0
144,'1',0.0,0.0,221.738,-49.409,1.04,0,0.0,0.0,1.0,0.0,0.0,1.0,1,1.0,602.55,180.765,1,1.0,0,1.0,0,1.0,0,1.0,0,1.0
145,'1',0.0,0.0,221.738,-49.409,1.04,0,0.0,0.0,1.0,0.0,0.0,1.0,1,1.0,602.55,180.765,1,1.0,0,1.0,0,1.0,0,1.0,0,1.0
167,'1',0.0,0.0,74.304,-9.482,1.04,0,0.0,0.0,1.0,0.0,0.0,1.0,1,1.0,12.981,0.0,1,1.0,0,1.0,0,1.0,0,1.0,0,1.0
168,'1',0.0,0.0,74.304,-9.482,1.04,0,0.0,0.0,1.0,0.0,0.0,1.0,1,1.0,12.981,0.0,1,1.0,0,1.0,0,1.0,0,1.0,0,1.0
169,'1',0.0,0.0,148.608,-18.963,1.04,0,0.0,0.0,1.0,0.0,0.0,1.0,1,1.0,25.963,0.0,1,1.0,0,1.0,0,1.0,0,1.0,0,1.0
197,'1',0.0,0.0,136.818,-35.819,1.04,0,0.0,0.0,1.0,0.0,0.0,1.0,1,1.0,293.6,88.08,1,1.0,0,1.0,0,1.0,0,1.0,0,1.0
198,'1',0.0,0.0,96.602,-25.291,1.04,0,0.0,0.0,1.0,0.0,0.0,1.0,1,1.0,207.3,62.19,1,1.0,0,1.0,0,1.0,0,1.0,0,1.0
222,'1',0.0,0.0,1.997,-0.255,1.0403364,0,0.0,0.0,1.0,0.0,0.0,1.0,1,1.0,0.349,0.0,1,1.0,0,1.0,0,1.0,0,1.0,0,1.0
223,'1',0.0,0.0,6.912,-0.882,1.0401363,0,0.0,0.0,1.0,0.0,0.0,1.0,1,1.0,1.208,0.0,1,1.0,0,1.0,0,1.0,0,1.0,0,1.0
224,'1',0.0,0.0,196.301,-25.049,1.04,0,0.0,0.0,1.0,0.0,0.0,1.0,1,1.0,34.295,0.0,1,1.0,0,1.0,0,1.0,0,1.0,0,1.0
225,'1',0.0,0.0,197.683,-25.225,1.04,0,0.0,0.0,1.0,0.0,0.0,1.0,1,1.0,34.537,0.0,1,1.0,0,1.0,0,1.0,0,1.0,0,1.0
231,'1',0.0,0.0,1.351,-0.354,1.0266825,0,0.0,0.0,1.0,0.0,0.0,1.0,1,1.0,2.9,0.87,1,1.0,0,1.0,0,1.0,0,1.0,0,1.0
248,'1',0.0,0.0,67.799,-14.785,1.0436244,0,0.0,0.0,1.0,0.0,0.0,1.0,0,1.0,133.2,39.96,1,1.0,0,1.0,0,1.0,0,1.0,0,1.0
249,'1',0.0,0.0,67.799,-14.785,1.0436244,0,0.0,0.0,1.0,0.0,0.0,1.0,0,1.0,133.2,39.96,1,1.0,0,1.0,0,1.0,0,1.0,0,1.0
250,'1',0.0,0.0,271.195,-59.141,1.0436244,0,0.0,0.0,1.0,0.0,0.0,1.0,0,1.0,532.8,159.84,1,1.0,0,1.0,0,1.0,0,1.0,0,1.0
254,'1',0.0,0.0,1.911,-0.5,1.0269578,0,0.0,0.0,1.0,0.0,0.0,1.0,1,1.0,4.1,1.23,1,1.0,0,1.0,0,1.0,0,1.0,0,1.0
255,'1',0.0,0.0,1.538,-0.403,1.0260195,0,0.0,0.0,1.0,0.0,0.0,1.0,1,1.0,3.3,0.99,1,1.0,0,1.0,0,1.0,0,1.0,0,1.0
256,'1',0.0,0.0,1.351,-0.354,1.0269423,0,0.0,0.0,1.0,0.0,0.0,1.0,1,1.0,2.9,0.87,1,1.0,0,1.0,0,1.0,0,1.0,0,1.0
257,'1',0.0,0.0,2.516,-0.659,1.0264293,0,0.0,0.0,1.0,0.0,0.0,1.0,1,1.0,5.4,1.62,1,1.0,0,1.0,0,1.0,0,1.0,0,1.0
258,'1',0.0,0.0,0.513,-0.134,1.0257315,0,0.0,0.0,1.0,0.0,0.0,1.0,1,1.0,1.1,0.33,1,1.0,0,1.0,0,1.0,0,1.0,0,1.0
264,'1',0.0,0.0,19.953,-4.351,1.0330723,0,0.0,0.0,1.0,0.0,0.0,1.0,0,1.0,39.2,11.76,1,1.0,0,1.0,0,1.0,0,1.0,0,1.0
265,'1',0.0,0.0,5.395,-1.177,1.0330723,0,0.0,0.0,1.0,0.0,0.0,1.0,0,1.0,10.6,3.18,1,1.0,0,1.0,0,1.0,0,1.0,0,1.0
275,'1',0.0,0.0,51.511,-11.233,1.0285879,0,0.0,0.0,1.0,0.0,0.0,1.0,0,1.0,101.2,30.36,1,1.0,0,1.0,0,1.0,0,1.0,0,1.0
301,'1',0.0,0.0,1.351,-0.354,1.0188016,0,0.0,0.0,1.0,0.0,0.0,1.0,0,1.0,2.9,0.87,1,1.0,0,1.0,0,1.0,0,1.0,0,1.0
302,'1',0.0,0.0,1.351,-0.354,1.0188016,0,0.0,0.0,1.0,0.0,0.0,1.0,0,1.0,2.9,0.87,1,1.0,0,1.0,0,1.0,0,1.0,0,1.0
305,'1',0.0,0.0,0.384,-0.049,1.0238848,0,0.0,0.0,1.0,0.0,0.0,1.0,1,1.0,0.067,0.0,1,1.0,0,1.0,0,1.0,0,1.0,0,1.0
306,'1',0.0,0.0,0.922,-0.118,1.0241195,0,0.0,0.0,1.0,0.0,0.0,1.0,1,1.0,0.161,0.0,1,1.0,0,1.0,0,1.0,0,1.0,0,1.0
319,'1',0.0,0.0,16.243,-2.073,1.04,0,0.0,0.0,1.0,0.0,0.0,1.0,1,1.0,2.838,0.0,1,1.0,0,1.0,0,1.0,0,1.0,0,1.0
350,'1',0.0,0.0,5.76,-0.735,1.04,0,0.0,0.0,1.0,0.0,0.0,1.0,1,1.0,1.006,0.0,1,1.0,0,1.0,0,1.0,0,1.0,0,1.0
351,'1',0.0,0.0,2.381,-0.304,1.0380808,0,0.0,0.0,1.0,0.0,0.0,1.0,1,1.0,0.416,0.0,1,1.0,0,1.0,0,1.0,0,1.0,0,1.0
352,'1',0.0,0.0,5.53,-0.706,1.04,0,0.0,0.0,1.0,0.0,0.0,1.0,1,1.0,0.966,0.0,1,1.0,0,1.0,0,1.0,0,1.0,0,1.0
353,'1',0.0,0.0,28.416,-3.626,1.04,0,0.0,0.0,1.0,0.0,0.0,1.0,1,1.0,4.964,0.0,1,1.0,0,1.0,0,1.0,0,1.0,0,1.0
361,'1',0.0,0.0,0.814,-0.178,1.0311076,0,0.0,0.0,1.0,0.0,0.0,1.0,0,1.0,1.6,0.48,1,1.0,0,1.0,0,1.0,0,1.0,0,1.0
362,'1',0.0,0.0,5.599,-1.221,1.0311076,0,0.0,0.0,1.0,0.0,0.0,1.0,0,1.0,11.0,3.3,1,1.0,0,1.0,0,1.0,0,1.0,0,1.0
363,'1',0.0,0.0,1.629,-0.355,1.0311076,0,0.0,0.0,1.0,0.0,0.0,1.0,0,1.0,3.2,0.96,1,1.0,0,1.0,0,1.0,0,1.0,0,1.0
388,'1',0.0,0.0,5.09,-1.11,1.0373536,0,0.0,0.0,1.0,0.0,0.0,1.0,0,1.0,10.0,3.0,1,1.0,0,1.0,0,1.0,0,1.0,0,1.0
389,'1',0.0,0.0,88.227,-19.24,1.0373536,0,0.0,0.0,1.0,0.0,0.0,1.0,0,1.0,173.333,52.0,1,1.0,0,1.0,0,1.0,0,1.0,0,1.0
390,'1',0.0,0.0,88.227,-19.24,1.0373536,0,0.0,0.0,1.0,0.0,0.0,1.0,0,1.0,173.333,52.0,1,1.0,0,1.0,0,1.0,0,1.0,0,1.0
391,'1',0.0,0.0,88.227,-19.24,1.0373536,0,0.0,0.0,1.0,0.0,0.0,1.0,0,1.0,173.333,52.0,1,1.0,0,1.0,0,1.0,0,1.0,0,1.0
392,'1',0.0,0.0,59.248,-12.92,1.0373536,0,0.0,0.0,1.0,0.0,0.0,1.0,0,1.0,116.4,34.92,1,1.0,0,1.0,0,1.0,0,1.0,0,1.0
393,'1',0.0,0.0,59.248,-12.92,1.0373536,0,0.0,0.0,1.0,0.0,0.0,1.0,0,1.0,116.4,34.92,1,1.0,0,1.0,0,1.0,0,1.0,0,1.0
394,'1',0.0,0.0,59.248,-12.92,1.0373536,0,0.0,0.0,1.0,0.0,0.0,1.0,0,1.0,116.4,34.92,1,1.0,0,1.0,0,1.0,0,1.0,0,1.0
395,'1',0.0,0.0,59.248,-12.92,1.0373536,0,0.0,0.0,1.0,0.0,0.0,1.0,0,1.0,116.4,34.92,1,1.0,0,1.0,0,1.0,0,1.0,0,1.0
396,'1',0.0,0.0,59.248,-12.92,1.0373536,0,0.0,0.0,1.0,0.0,0.0,1.0,0,1.0,116.4,34.92,1,1.0,0,1.0,0,1.0,0,1.0,0,1.0
409,'1',0.0,0.0,50.9,-11.1,1.0413882,0,0.0,0.0,1.0,0.0,0.0,1.0,0,1.0,100.0,30.0,1,1.0,0,1.0,0,1.0,0,1.0,0,1.0
410,'1',0.0,0.0,69.708,-15.201,1.0413882,0,0.0,0.0,1.0,0.0,0.0,1.0,0,1.0,136.95,41.085,1,1.0,0,1.0,0,1.0,0,1.0,0,1.0
411,'1',0.0,0.0,69.708,-15.201,1.0413882,0,0.0,0.0,1.0,0.0,0.0,1.0,0,1.0,136.95,41.085,1,1.0,0,1.0,0,1.0,0,1.0,0,1.0
412,'1',0.0,0.0,69.708,-15.201,1.0413882,0,0.0,0.0,1.0,0.0,0.0,1.0,0,1.0,136.95,41.085,1,1.0,0,1.0,0,1.0,0,1.0,0,1.0
413,'1',0.0,0.0,69.708,-15.201,1.0413882,0,0.0,0.0,1.0,0.0,0.0,1.0,0,1.0,136.95,41.085,1,1.0,0,1.0,0,1.0,0,1.0,0,1.0
414,'1',0.0,0.0,56.55,-12.332,1.0413882,0,0.0,0.0,1.0,0.0,0.0,1.0,0,1.0,111.1,33.33,1,1.0,0,1.0,0,1.0,0,1.0,0,1.0
430,'1',0.0,0.0,0.384,-0.049,1.0407729,0,0.0,0.0,1.0,0.0,0.0,1.0,1,1.0,0.067,0.0,1,1.0,0,1.0,0,1.0,0,1.0,0,1.0
431,'1',0.0,0.0,1.267,-0.162,1.0407461,0,0.0,0.0,1.0,0.0,0.0,1.0,1,1.0,0.221,0.0,1,1.0,0,1.0,0,1.0,0,1.0,0,1.0
432,'1',0.0,0.0,0.461,-0.059,1.0407843,0,0.0,0.0,1.0,0.0,0.0,1.0,1,1.0,0.081,0.0,1,1.0,0,1.0,0,1.0,0,1.0,0,1.0
433,'1',0.0,0.0,2.573,-0.328,1.0405187,0,0.0,0.0,1.0,0.0,0.0,1.0,1,1.0,0.449,0.0,1,1.0,0,1.0,0,1.0,0,1.0,0,1.0
434,'1',0.0,0.0,1.651,-0.211,1.040757,0,0.0,0.0,1.0,0.0,0.0,1.0,1,1.0,0.288,0.0,1,1.0,0,1.0,0,1.0,0,1.0,0,1.0
435,'1',0.0,0.0,75.648,-9.653,1.04,0,0.0,0.0,1.0,0.0,0.0,1.0,1,1.0,13.216,0.0,1,1.0,0,1.0,0,1.0,0,1.0,0,1.0
436,'1',0.0,0.0,75.648,-9.653,1.04,0,0.0,0.0,1.0,0.0,0.0,1.0,1,1.0,13.216,0.0,1,1.0,0,1.0,0,1.0,0,1.0,0,1.0
437,'1',0.0,0.0,75.648,-9.653,1.04,0,0.0,0.0,1.0,0.0,0.0,1.0,1,1.0,13.216,0.0,1,1.0,0,1.0,0,1.0,0,1.0,0,1.0
438,'1',0.0,0.0,75.648,-9.653,1.04,0,0.0,0.0,1.0,0.0,0.0,1.0,1,1.0,13.216,0.0,1,1.0,0,1.0,0,1.0,0,1.0,0,1.0
439,'1',0.0,0.0,75.648,-9.653,1.04,0,0.0,0.0,1.0,0.0,0.0,1.0,1,1.0,13.216,0.0,1,1.0,0,1.0,0,1.0,0,1.0,0,1.0
442,'1',0.0,0.0,54.972,-11.988,1.0343982,0,0.0,0.0,1.0,0.0,0.0,1.0,0,1.0,108.0,32.4,1,1.0,0,1.0,0,1.0,0,1.0,0,1.0
443,'1',0.0,0.0,89.075,-19.425,1.0343982,0,0.0,0.0,1.0,0.0,0.0,1.0,0,1.0,175.0,52.5,1,1.0,0,1.0,0,1.0,0,1.0,0,1.0
444,'1',0.0,0.0,1.68,-0.366,1.0343982,0,0.0,0.0,1.0,0.0,0.0,1.0,0,1.0,3.3,0.99,1,1.0,0,1.0,0,1.0,0,1.0,0,1.0
455,'1',0.0,0.0,113.422,-24.735,1.0324033,0,0.0,0.0,1.0,0.0,0.0,1.0,0,1.0,222.833,66.85,1,1.0,0,1.0,0,1.0,0,1.0,0,1.0
456,'1',0.0,0.0,226.844,-49.469,1.0324033,0,0.0,0.0,1.0,0.0,0.0,1.0,0,1.0,445.667,133.3,1,1.0,0,1.0,0,1.0,0,1.0,0,1.0
458,'1',0.0,0.0,0.0,0.0,1.0278384,0,0.0,0.0,1.0,0.0,0.0,1.0,1,1.0,109.6,32.88,1,1.0,0,1.0,0,1.0,0,1.0,0,1.0
463,'1',0.0,0.0,3.355,-0.878,1.04,0,0.0,0.0,1.0,0.0,0.0,1.0,1,1.0,7.2,2.16,1,1.0,0,1.0,0,1.0,0,1.0,0,1.0
480,'1',0.0,0.0,21.504,-2.744,1.01,0,0.0,0.0,1.0,0.0,0.0,1.0,1,1.0,3.757,0.0,1,1.0,0,1.0,0,1.0,0,1.0,0,1.0
481,'1',0.0,0.0,17.28,-2.205,1.01,0,0.0,0.0,1.0,0.0,0.0,1.0,1,1.0,3.019,0.0,1,1.0,0,1.0,0,1.0,0,1.0,0,1.0
482,'1',0.0,0.0,17.28,-2.205,1.01,0,0.0,0.0,1.0,0.0,0.0,1.0,1,1.0,3.019,0.0,1,1.0,0,1.0,0,1.0,0,1.0,0,1.0
483,'1',0.0,0.0,9.216,-1.176,1.01,0,0.0,0.0,1.0,0.0,0.0,1.0,1,1.0,1.61,0.0,1,1.0,0,1.0,0,1.0,0,1.0,0,1.0
484,'1',0.0,0.0,10.752,-1.372,1.01,0,0.0,0.0,1.0,0.0,0.0,1.0,1,1.0,1.878,0.0,1,1.0,0,1.0,0,1.0,0,1.0,0,1.0
494,'1',0.0,0.0,2.703,-0.708,1.036071,0,0.0,0.0,1.0,0.0,0.0,1.0,1,1.0,5.8,1.74,1,1.0,0,1.0,0,1.0,0,1.0,0,1.0
497,'1',0.0,0.0,23.04,-2.94,1.04,0,0.0,0.0,1.0,0.0,0.0,1.0,1,1.0,4.025,0.0,1,1.0,0,1.0,0,1.0,0,1.0,0,1.0
498,'1',0.0,0.0,6.912,-0.882,1.0397624,0,0.0,0.0,1.0,0.0,0.0,1.0,1,1.0,1.208,0.0,1,1.0,0,1.0,0,1.0,0,1.0,0,1.0
0 / END OF GENERATOR DATA BEGIN BRANCH DATA
2,1,'1',0.000530993,0.00313968,0.0,76.5,76.5,76.5,0.0,0.0,0.0,0.0,1,1,0.0,1,1.0,0,1.0,0,1.0,0,1.0
3,479,'1',0.00725845,0.0696995,0.0224998,145.0,145.0,145.0,0.0,0.0,0.0,0.0,1,1,0.0,1,1.0,0,1.0,0,1.0,0,1.0
4,3,'1',0.000692061,0.00351835,0.0,225.1,225.1,225.1,0.0,0.0,0.0,0.0,1,1,0.0,1,1.0,0,1.0,0,1.0,0,1.0
6,5,'1',0.000555857,0.00356302,0.0,4.5,4.5,4.5,0.0,0.0,0.0,0.0,1,1,0.0,1,1.0,0,1.0,0,1.0,0,1.0
7,232,'1',0.00111912,0.0148076,0.312051,1100.0,1100.0,1100.0,0.0,0.0,0.0,0.0,1,1,0.0,1,1.0,0,1.0,0,1.0,0,1.0
7,262,'1',0.000946655,0.0137492,0.239936,900.0,900.0,900.0,0.0,0.0,0.0,0.0,1,1,0.0,1,1.0,0,1.0,0,1.0,0,1.0
8,287,'1',0.00372677,0.0357864,0.0115523,300.0,300.0,300.0,0.0,0.0,0.0,0.0,1,1,0.0,1,1.0,0,1.0,0,1.0,0,1.0
8,457,'1',0.00197391,0.0189546,0.00611875,200.0,200.0,200.0,0.0,0.0,0.0,0.0,1,1,0.0,1,1.0,0,1.0,0,1.0,0,1.0
10,349,'1',0.00140166,0.0134595,0.00434489,145.0,145.0,145.0,0.0,0.0,0.0,0.0,1,1,0.0,1,1.0,0,1.0,0,1.0,0,1.0
11,10,'1',0.000654968,0.00320079,0.0,4.0,4.0,4.0,0.0,0.0,0.0,0.0,1,1,0.0,1,1.0,0,1.0,0,1.0,0,1.0
12,216,'1',0.00396229,0.038048,0.0122823,270.0,270.0,270.0,0.0,0.0,0.0,0.0,1,1,0.0,1,1.0,0,1.0,0,1.0,0,1.0
12,304,'1',0.00231,0.021191,0.00751,290.0,290.0,290.0,0.0,0.0,0.0,0.0,1,1,0.0,1,1.0,0,1.0,0,1.0,0,1.0
12,441,'1',0.001565,0.015025,0.00485,280.0,280.0,280.0,0.0,0.0,0.0,0.0,1,1,0.0,1,1.0,0,1.0,0,1.0,0,1.0
13,12,'1',0.000623092,0.00313413,0.0,65.5,65.5,65.5,0.0,0.0,0.0,0.0,1,1,0.0,1,1.0,0,1.0,0,1.0,0,1.0
15,91,'1',0.004799,0.046085,0.014877,160.0,160.0,160.0,0.0,0.0,0.0,0.0,1,1,0.0,1,1.0,0,1.0,0,1.0,0,1.0
15,230,'1',0.0108937,0.104607,0.0337685,220.0,220.0,220.0,0.0,0.0,0.0,0.0,1,1,0.0,1,1.0,0,1.0,0,1.0,0,1.0
15,369,'1',0.001854,0.01701,0.006028,220.0,220.0,220.0,0.0,0.0,0.0,0.0,1,1,0.0,1,1.0,0,1.0,0,1.0,0,1.0
15,473,'1',0.00922481,0.0846215,0.0299878,145.0,145.0,145.0,0.0,0.0,0.0,0.0,1,1,0.0,1,1.0,0,1.0,0,1.0,0,1.0
19,112,'1',0.00472218,0.0453449,0.0146378,145.0,145.0,145.0,0.0,0.0,0.0,0.0,1,1,0.0,1,1.0,0,1.0,0,1.0,0,1.0
19,272,'1',0.00229314,0.0220199,0.00710827,205.0,205.0,205.0,0.0,0.0,0.0,0.0,1,1,0.0,1,1.0,0,1.0,0,1.0,0,1.0
20,19,'1',0.000541213,0.00388582,0.0,7.5,7.5,7.5,0.0,0.0,0.0,0.0,1,1,0.0,1,1.0,0,1.0,0,1.0,0,1.0
21,112,'1',0.00509204,0.0488965,0.0157843,270.0,270.0,270.0,0.0,0.0,0.0,0.0,1,1,0.0,1,1.0,0,1.0,0,1.0,0,1.0
21,196,'1',0.00220719,0.0202471,0.00717509,365.0,365.0,365.0,0.0,0.0,0.0,0.0,1,1,0.0,1,1.0,0,1.0,0,1.0,0,1.0
22,21,'1',0.000587223,0.00317397,0.0,254.2,254.2,254.2,0.0,0.0,0.0,0.0,1,1,0.0,1,1.0,0,1.0,0,1.0,0,1.0
23,386,'1',0.001642,0.023851,0.416226,1000.0,1000.0,1000.0,0.0,0.0,0.0,0.0,1,1,0.0,1,1.0,0,1.0,0,1.0,0,1.0
23,464,'1',0.000947169,0.0125324,0.264105,1000.0,1000.0,1000.0,0.0,0.0,0.0,0.0,1,1,0.0,1,1.0,0,1.0,0,1.0,0,1.0
23,471,'1',0.000532103,0.0070405,0.14837,1100.0,1100.0,1100.0,0.0,0.0,0.0,0.0,1,1,0.0,1,1.0,0,1.0,0,1.0,0,1.0
24,360,'1',0.0023654,0.0227138,0.00733228,240.0,240.0,240.0,0.0,0.0,0.0,0.0,1,1,0.0,1,1.0,0,1.0,0,1.0,0,1.0
25,24,'1',0.000613052,0.00362887,0.0,3.6,3.6,3.6,0.0,0.0,0.0,0.0,1,1,0.0,1,1.0,0,1.0,0,1.0,0,1.0
26,24,'1',0.000563017,0.00372943,0.0,29.5,29.5,29.5,0.0,0.0,0.0,0.0,1,1,0.0,1,1.0,0,1.0,0,1.0,0,1.0
27,68,'1',0.005607,0.053845,0.017382,300.0,300.0,300.0,0.0,0.0,0.0,0.0,1,1,0.0,1,1.0,0,1.0,0,1.0,0,1.0
27,382,'1',0.00336979,0.0309119,0.0109544,185.0,185.0,185.0,0.0,0.0,0.0,0.0,1,1,0.0,1,1.0,0,1.0,0,1.0,0,1.0
28,27,'1',0.000686715,0.00396302,0.0,108.6,108.6,108.6,0.0,0.0,0.0,0.0,1,1,0.0,1,1.0,0,1.0,0,1.0,0,1.0
29,491,'1',0.005607,0.053837,0.017379,145.0,145.0,145.0,0.0,0.0,0.0,0.0,1,1,0.0,1,1.0,0,1.0,0,1.0,0,1.0
30,29,'1',0.000616364,0.00329848,0.0,157.0,157.0,157.0,0.0,0.0,0.0,0.0,1,1,0.0,1,1.0,0,1.0,0,1.0,0,1.0
31,85,'1',0.00530344,0.0509265,0.0164396,300.0,300.0,300.0,0.0,0.0,0.0,0.0,1,1,0.0,1,1.0,0,1.0,0,1.0,0,1.0
31,189,'1',0.0057068,0.0547997,0.01769,145.0,145.0,145.0,0.0,0.0,0.0,0.0,1,1,0.0,1,1.0,0,1.0,0,1.0,0,1.0
31,205,'1',0.00779682,0.0748692,0.0241686,145.0,145.0,145.0,0.0,0.0,0.0,0.0,0,1,0.0,1,1.0,0,1.0,0,1.0,0,1.0
31,218,'1',0.00827343,0.0794458,0.025646,145.0,145.0,145.0,0.0,0.0,0.0,0.0,1,1,0.0,1,1.0,0,1.0,0,1.0,0,1.0
32,31,'1',0.000625228,0.00342917,0.0,15.7,15.7,15.7,0.0,0.0,0.0,0.0,1,1,0.0,1,1.0,0,1.0,0,1.0,0,1.0
34,33,'1',0.000624403,0.00328363,0.0,43.4,43.4,43.4,0.0,0.0,0.0,0.0,1,1,0.0,1,1.0,0,1.0,0,1.0,0,1.0
35,399,'1',0.005636,0.054123,0.017472,270.0,270.0,270.0,0.0,0.0,0.0,0.0,1,1,0.0,1,1.0,0,1.0,0,1.0,0,1.0
36,35,'1',0.000582978,0.00303006,0.0,62.9,62.9,62.9,0.0,0.0,0.0,0.0,1,1,0.0,1,1.0,0,1.0,0,1.0,0,1.0
37,176,'1',0.003039,0.02918,0.009419,275.0,275.0,275.0,0.0,0.0,0.0,0.0,1,1,0.0,1,1.0,0,1.0,0,1.0,0,1.0
38,37,'1',0.0005458,0.00382289,0.0,0.2,0.2,0.2,0.0,0.0,0.0,0.0,1,1,0.0,1,1.0,0,1.0,0,1.0,0,1.0
39,332,'1',0.000403375,0.00578618,0.103547,900.0,900.0,900.0,0.0,0.0,0.0,0.0,1,1,0.0,1,1.0,0,1.0,0,1.0,0,1.0
39,428,'1',0.000521367,0.00689845,0.145376,900.0,900.0,900.0,0.0,0.0,0.0,0.0,1,1,0.0,1,1.0,0,1.0,0,1.0,0,1.0
40,131,'1',0.00290861,0.0266814,0.00945527,145.0,145.0,145.0,0.0,0.0,0.0,0.0,1,1,0.0,1,1.0,0,1.0,0,1.0,0,1.0
41,40,'1',0.000631179,0.00392265,0.0,97.5,97.5,97.5,0.0,0.0,0.0,0.0,1,1,0.0,1,1.0,0,1.0,0,1.0,0,1.0
42,191,'1',0.0063685,0.0584198,0.0207026,270.0,270.0,270.0,0.0,0.0,0.0,0.0,1,1,0.0,1,1.0,0,1.0,0,1.0,0,1.0
43,42,'1',0.000541641,0.00311887,0.0,7.7,7.7,7.7,0.0,0.0,0.0,0.0,1,1,0.0,1,1.0,0,1.0,0,1.0,0,1.0
44,1,'1',0.00547862,0.0502567,0.0178098,250.0,250.0,250.0,0.0,0.0,0.0,0.0,1,1,0.0,1,1.0,0,1.0,0,1.0,0,1.0
44,200,'1',0.00210518,0.0193113,0.00684347,250.0,250.0,250.0,0.0,0.0,0.0,0.0,1,1,0.0,1,1.0,0,1.0,0,1.0,0,1.0
45,44,'1',0.000636537,0.00387643,0.0,2.8,2.8,2.8,0.0,0.0,0.0,0.0,1,1,0.0,1,1.0,0,1.0,0,1.0,0,1.0
46,156,'1',0.00661096,0.0634819,0.0204927,185.0,185.0,185.0,0.0,0.0,0.0,0.0,1,1,0.0,1,1.0,0,1.0,0,1.0,0,1.0
47,46,'1',0.000602161,0.00345412,0.0,63.0,63.0,63.0,0.0,0.0,0.0,0.0,1,1,0.0,1,1.0,0,1.0,0,1.0,0,1.0
51,48,'1',0.000657783,0.00367224,0.0,0.6,0.6,0.6,0.0,0.0,0.0,0.0,1,1,0.0,1,1.0,0,1.0,0,1.0,0,1.0
52,48,'1',0.00062,0.00334229,0.0,37.9,37.9,37.9,0.0,0.0,0.0,0.0,1,1,0.0,1,1.0,0,1.0,0,1.0,0,1.0
53,276,'1',0.0015021,0.0144239,0.00465621,200.0,200.0,200.0,0.0,0.0,0.0,0.0,1,1,0.0,1,1.0,0,1.0,0,1.0,0,1.0
54,53,'1',0.000680462,0.00306134,0.0,51.3,51.3,51.3,0.0,0.0,0.0,0.0,1,1,0.0,1,1.0,0,1.0,0,1.0,0,1.0
55,66,'1',0.00432958,0.041575,0.0134209,145.0,145.0,145.0,0.0,0.0,0.0,0.0,1,1,0.0,1,1.0,0,1.0,0,1.0,0,1.0
55,500,'1',0.00448061,0.0411018,0.0145655,145.0,145.0,145.0,0.0,0.0,0.0,0.0,1,1,0.0,1,1.0,0,1.0,0,1.0,0,1.0
56,55,'1',0.000640992,0.00331002,0.0,3.1,3.1,3.1,0.0,0.0,0.0,0.0,1,1,0.0,1,1.0,0,1.0,0,1.0,0,1.0
57,123,'1',0.001682,0.024427,0.426274,1000.0,1000.0,1000.0,0.0,0.0,0.0,0.0,1,1,0.0,1,1.0,0,1.0,0,1.0,0,1.0
58,253,'1',0.00453214,0.04352,0.0140487,200.0,200.0,200.0,0.0,0.0,0.0,0.0,1,1,0.0,1,1.0,0,1.0,0,1.0,0,1.0
59,58,'1',0.000620439,0.00384844,0.0,252.9,252.9,252.9,0.0,0.0,0.0,0.0,1,1,0.0,1,1.0,0,1.0,0,1.0,0,1.0
60,131,'1',0.0019849,0.018208,0.00645249,185.0,185.0,185.0,0.0,0.0,0.0,0.0,1,1,0.0,1,1.0,0,1.0,0,1.0,0,1.0
61,60,'1',0.000528782,0.00351793,0.0,0.3,0.3,0.3,0.0,0.0,0.0,0.0,1,1,0.0,1,1.0,0,1.0,0,1.0,0,1.0
62,3,'1',0.0027178,0.0260978,0.00842465,250.0,250.0,250.0,0.0,0.0,0.0,0.0,1,1,0.0,1,1.0,0,1.0,0,1.0,0,1.0
62,457,'1',0.00726746,0.069786,0.0225277,200.0,200.0,200.0,0.0,0.0,0.0,0.0,1,1,0.0,1,1.0,0,1.0,0,1.0,0,1.0
64,62,'1',0.000661196,0.00327389,0.0,45.6,45.6,45.6,0.0,0.0,0.0,0.0,1,1,0.0,1,1.0,0,1.0,0,1.0,0,1.0
65,297,'1',0.000919634,0.0131916,0.236073,900.0,900.0,900.0,0.0,0.0,0.0,0.0,1,1,0.0,1,1.0,0,1.0,0,1.0,0,1.0
66,308,'1',0.00718043,0.0689503,0.0222579,270.0,270.0,270.0,0.0,0.0,0.0,0.0,1,1,0.0,1,1.0,0,1.0,0,1.0,0,1.0
67,66,'1',0.000661357,0.00335859,0.0,6.7,6.7,6.7,0.0,0.0,0.0,0.0,1,1,0.0,1,1.0,0,1.0,0,1.0,0,1.0
68,295,'1',0.00446902,0.0409955,0.0145278,145.0,145.0,145.0,0.0,0.0,0.0,0.0,1,1,0.0,1,1.0,0,1.0,0,1.0,0,1.0
68,314,'1',0.001805,0.017334,0.005596,220.0,220.0,220.0,0.0,0.0,0.0,0.0,1,1,0.0,1,1.0,0,1.0,0,1.0,0,1.0
69,68,'1',0.00066883,0.00399823,0.0,27.6,27.6,27.6,0.0,0.0,0.0,0.0,1,1,0.0,1,1.0,0,1.0,0,1.0,0,1.0
70,490,'1',0.00212701,0.0195116,0.00691444,170.0,170.0,170.0,0.0,0.0,0.0,0.0,1,1,0.0,1,1.0,0,1.0,0,1.0,0,1.0
74,189,'1',0.00563229,0.0540843,0.017459,220.0,220.0,220.0,0.0,0.0,0.0,0.0,1,1,0.0,1,1.0,0,1.0,0,1.0,0,1.0
75,74,'1',0.00058441,0.0033391,0.0,8.8,8.8,8.8,0.0,0.0,0.0,0.0,1,1,0.0,1,1.0,0,1.0,0,1.0,0,1.0
76,37,'1',0.00147415,0.0141555,0.00456957,270.0,270.0,270.0,0.0,0.0,0.0,0.0,1,1,0.0,1,1.0,0,1.0,0,1.0,0,1.0
77,76,'1',0.000695009,0.00331266,0.0,12.2,12.2,12.2,0.0,0.0,0.0,0.0,1,1,0.0,1,1.0,0,1.0,0,1.0,0,1.0
78,328,'1',0.00543197,0.0498288,0.0176582,260.0,260.0,260.0,0.0,0.0,0.0,0.0,1,1,0.0,1,1.0,0,1.0,0,1.0,0,1.0
78,387,'1',0.00235449,0.022609,0.00729845,260.0,260.0,260.0,0.0,0.0,0.0,0.0,1,1,0.0,1,1.0,0,1.0,0,1.0,0,1.0
79,78,'1',0.000622277,0.00327852,0.0,0.5,0.5,0.5,0.0,0.0,0.0,0.0,1,1,0.0,1,1.0,0,1.0,0,1.0,0,1.0
80,65,'1',0.000960188,0.0137734,0.246483,1350.0,1350.0,1350.0,0.0,0.0,0.0,0.0,1,1,0.0,1,1.0,0,1.0,0,1.0,0,1.0
81,42,'1',0.00236124,0.0216602,0.00767586,270.0,270.0,270.0,0.0,0.0,0.0,0.0,1,1,0.0,1,1.0,0,1.0,0,1.0,0,1.0
83,33,'1',0.00528651,0.0507639,0.0163871,220.0,220.0,220.0,0.0,0.0,0.0,0.0,1,1,0.0,1,1.0,0,1.0,0,1.0,0,1.0
83,342,'1',0.00411562,0.0395203,0.0127576,145.0,145.0,145.0,0.0,0.0,0.0,0.0,1,1,0.0,1,1.0,0,1.0,0,1.0,0,1.0
84,83,'1',0.000637555,0.00365521,0.0,105.4,105.4,105.4,0.0,0.0,0.0,0.0,1,1,0.0,1,1.0,0,1.0,0,1.0,0,1.0
86,85,'1',0.00065231,0.00390108,0.0,30.0,30.0,30.0,0.0,0.0,0.0,0.0,1,1,0.0,1,1.0,0,1.0,0,1.0,0,1.0
87,141,'1',0.001846,0.017727,0.005723,520.0,520.0,520.0,0.0,0.0,0.0,0.0,1,1,0.0,1,1.0,0,1.0,0,1.0,0,1.0
87,143,'1',0.00382,0.035043,0.012419,515.0,515.0,515.0,0.0,0.0,0.0,0.0,1,1,0.0,1,1.0,0,1.0,0,1.0,0,1.0
88,87,'1',0.000622526,0.00356856,0.0,7.7,7.7,7.7,0.0,0.0,0.0,0.0,1,1,0.0,1,1.0,0,1.0,0,1.0,0,1.0
89,187,'1',0.00211627,0.0203216,0.00656004,145.0,145.0,145.0,0.0,0.0,0.0,0.0,1,1,0.0,1,1.0,0,1.0,0,1.0,0,1.0
89,457,'1',0.009012,0.082666,0.029295,145.0,145.0,145.0,0.0,0.0,0.0,0.0,1,1,0.0,1,1.0,0,1.0,0,1.0,0,1.0
90,89,'1',0.000554087,0.00386402,0.0,10.5,10.5,10.5,0.0,0.0,0.0,0.0,1,1,0.0,1,1.0,0,1.0,0,1.0,0,1.0
91,133,'1',0.00504049,0.0484015,0.0156245,270.0,270.0,270.0,0.0,0.0,0.0,0.0,1,1,0.0,1,1.0,0,1.0,0,1.0,0,1.0
92,91,'1',0.0005717,0.00361724,0.0,104.2,104.2,104.2,0.0,0.0,0.0,0.0,1,1,0.0,1,1.0,0,1.0,0,1.0,0,1.0
94,93,'1',0.000536047,0.00328149,0.0,8.2,8.2,8.2,0.0,0.0,0.0,0.0,1,1,0.0,1,1.0,0,1.0,0,1.0,0,1.0
95,170,'1',0.0021107,0.020268,0.00654275,145.0,145.0,145.0,0.0,0.0,0.0,0.0,1,1,0.0,1,1.0,0,1.0,0,1.0,0,1.0
95,369,'1',0.00409437,0.0393163,0.0126918,270.0,270.0,270.0,0.0,0.0,0.0,0.0,1,1,0.0,1,1.0,0,1.0,0,1.0,0,1.0
96,95,'1',0.00056273,0.00325345,0.0,56.2,56.2,56.2,0.0,0.0,0.0,0.0,1,1,0.0,1,1.0,0,1.0,0,1.0,0,1.0
98,97,'1',0.000568811,0.00398603,0.0,66.4,66.4,66.4,0.0,0.0,0.0,0.0,1,1,0.0,1,1.0,0,1.0,0,1.0,0,1.0
99,465,'1',0.0026889,0.0258203,0.00833507,145.0,145.0,145.0,0.0,0.0,0.0,0.0,1,1,0.0,1,1.0,0,1.0,0,1.0,0,1.0
100,99,'1',0.000644448,0.00362034,0.0,22.7,22.7,22.7,0.0,0.0,0.0,0.0,1,1,0.0,1,1.0,0,1.0,0,1.0,0,1.0
101,99,'1',0.000699472,0.00329389,0.0,1.4,1.4,1.4,0.0,0.0,0.0,0.0,1,1,0.0,1,1.0,0,1.0,0,1.0,0,1.0
102,308,'1',0.00564993,0.0542537,0.0175137,270.0,270.0,270.0,0.0,0.0,0.0,0.0,1,1,0.0,1,1.0,0,1.0,0,1.0,0,1.0
103,102,'1',0.000613984,0.00387398,0.0,64.6,64.6,64.6,0.0,0.0,0.0,0.0,1,1,0.0,1,1.0,0,1.0,0,1.0,0,1.0
104,31,'1',0.00552581,0.0530617,0.0171289,145.0,145.0,145.0,0.0,0.0,0.0,0.0,1,1,0.0,1,1.0,0,1.0,0,1.0,0,1.0
104,191,'1',0.00517651,0.0474854,0.0168277,145.0,145.0,145.0,0.0,0.0,0.0,0.0,1,1,0.0,1,1.0,0,1.0,0,1.0,0,1.0
105,104,'1',0.000672543,0.00375095,0.0,144.2,144.2,144.2,0.0,0.0,0.0,0.0,1,1,0.0,1,1.0,0,1.0,0,1.0,0,1.0
106,191,'1',0.00446795,0.0429036,0.0138498,270.0,270.0,270.0,0.0,0.0,0.0,0.0,1,1,0.0,1,1.0,0,1.0,0,1.0,0,1.0
107,106,'1',0.000574563,0.00320633,0.0,24.5,24.5,24.5,0.0,0.0,0.0,0.0,1,1,0.0,1,1.0,0,1.0,0,1.0,0,1.0
108,472,'1',0.00203292,0.0195212,0.00630167,185.0,185.0,185.0,0.0,0.0,0.0,0.0,1,1,0.0,1,1.0,0,1.0,0,1.0,0,1.0
108,495,'1',0.00361075,0.0346724,0.0111926,220.0,220.0,220.0,0.0,0.0,0.0,0.0,1,1,0.0,1,1.0,0,1.0,0,1.0,0,1.0
109,108,'1',0.000658007,0.00300957,0.0,62.9,62.9,62.9,0.0,0.0,0.0,0.0,1,1,0.0,1,1.0,0,1.0,0,1.0,0,1.0
110,316,'1',0.00343915,0.0330245,0.0106607,145.0,145.0,145.0,0.0,0.0,0.0,0.0,1,1,0.0,1,1.0,0,1.0,0,1.0,0,1.0
111,110,'1',0.000526841,0.00370826,0.0,87.0,87.0,87.0,0.0,0.0,0.0,0.0,1,1,0.0,1,1.0,0,1.0,0,1.0,0,1.0
112,33,'1',0.00706143,0.0678076,0.021889,220.0,220.0,220.0,0.0,0.0,0.0,0.0,1,1,0.0,1,1.0,0,1.0,0,1.0,0,1.0
112,236,'1',0.00632924,0.0607768,0.0196194,300.0,300.0,300.0,0.0,0.0,0.0,0.0,1,1,0.0,1,1.0,0,1.0,0,1.0,0,1.0
112,283,'1',0.00861853,0.0827597,0.0267158,145.0,145.0,145.0,0.0,0.0,0.0,0.0,1,1,0.0,1,1.0,0,1.0,0,1.0,0,1.0
112,499,'1',0.0055765,0.0511546,0.018128,220.0,220.0,220.0,0.0,0.0,0.0,0.0,1,1,0.0,1,1.0,0,1.0,0,1.0,0,1.0
113,112,'1',0.000644371,0.00311935,0.0,73.0,73.0,73.0,0.0,0.0,0.0,0.0,1,1,0.0,1,1.0,0,1.0,0,1.0,0,1.0
114,191,'1',0.00555724,0.0533636,0.0172264,145.0,145.0,145.0,0.0,0.0,0.0,0.0,1,1,0.0,1,1.0,0,1.0,0,1.0,0,1.0
114,312,'1',0.0066089,0.0634622,0.0204863,145.0,145.0,145.0,0.0,0.0,0.0,0.0,1,1,0.0,1,1.0,0,1.0,0,1.0,0,1.0
115,114,'1',0.000506233,0.00336036,0.0,6.7,6.7,6.7,0.0,0.0,0.0,0.0,1,1,0.0,1,1.0,0,1.0,0,1.0,0,1.0
116,114,'1',0.000505013,0.00341051,0.0,5.3,5.3,5.3,0.0,0.0,0.0,0.0,1,1,0.0,1,1.0,0,1.0,0,1.0,0,1.0
117,426,'1',0.00317216,0.029099,0.010312,145.0,145.0,145.0,0.0,0.0,0.0,0.0,1,1,0.0,1,1.0,0,1.0,0,1.0,0,1.0
118,117,'1',0.000633836,0.00385096,0.0,12.8,12.8,12.8,0.0,0.0,0.0,0.0,1,1,0.0,1,1.0,0,1.0,0,1.0,0,1.0
119,129,'1',0.00234965,0.0215539,0.0076382,270.0,270.0,270.0,0.0,0.0,0.0,0.0,1,1,0.0,1,1.0,0,1.0,0,1.0,0,1.0
120,119,'1',0.000556147,0.00305904,0.0,46.6,46.6,46.6,0.0,0.0,0.0,0.0,1,1,0.0,1,1.0,0,1.0,0,1.0,0,1.0
121,276,'1',0.00254757,0.0244631,0.00789698,145.0,145.0,145.0,0.0,0.0,0.0,0.0,1,1,0.0,1,1.0,0,1.0,0,1.0,0,1.0
121,287,'1',0.00708754,0.0680583,0.02197,145.0,145.0,145.0,0.0,0.0,0.0,0.0,1,1,0.0,1,1.0,0,1.0,0,1.0,0,1.0
122,121,'1',0.000554934,0.00384643,0.0,70.4,70.4,70.4,0.0,0.0,0.0,0.0,1,1,0.0,1,1.0,0,1.0,0,1.0,0,1.0
124,260,'1',0.00203952,0.0187091,0.00663005,220.0,220.0,220.0,0.0,0.0,0.0,0.0,1,1,0.0,1,1.0,0,1.0,0,1.0,0,1.0
124,369,'1',0.00769284,0.0705683,0.0250077,225.0,225.0,225.0,0.0,0.0,0.0,0.0,1,1,0.0,1,1.0,0,1.0,0,1.0,0,1.0
130,129,'1',0.000698008,0.00322102,0.0,166.0,166.0,166.0,0.0,0.0,0.0,0.0,1,1,0.0,1,1.0,0,1.0,0,1.0,0,1.0
131,333,'1',0.00222709,0.0213857,0.00690355,300.0,300.0,300.0,0.0,0.0,0.0,0.0,1,1,0.0,1,1.0,0,1.0,0,1.0,0,1.0
132,131,'1',0.000673258,0.00361521,0.0,41.6,41.6,41.6,0.0,0.0,0.0,0.0,1,1,0.0,1,1.0,0,1.0,0,1.0,0,1.0
133,226,'1',0.00644015,0.0590771,0.0209355,145.0,145.0,145.0,0.0,0.0,0.0,0.0,1,1,0.0,1,1.0,0,1.0,0,1.0,0,1.0
133,369,'1',0.00615507,0.056462,0.0200088,300.0,300.0,300.0,0.0,0.0,0.0,0.0,1,1,0.0,1,1.0,0,1.0,0,1.0,0,1.0
134,133,'1',0.000515032,0.00308264,0.0,66.0,66.0,66.0,0.0,0.0,0.0,0.0,1,1,0.0,1,1.0,0,1.0,0,1.0,0,1.0
135,287,'1',0.00756782,0.0694215,0.0246013,300.0,300.0,300.0,0.0,0.0,0.0,0.0,1,1,0.0,1,1.0,0,1.0,0,1.0,0,1.0
135,457,'1',0.00686487,0.0629732,0.0223162,220.0,220.0,220.0,0.0,0.0,0.0,0.0,1,1,0.0,1,1.0,0,1.0,0,1.0,0,1.0
136,135,'1',0.000548777,0.0036604,0.0,45.6,45.6,45.6,0.0,0.0,0.0,0.0,1,1,0.0,1,1.0,0,1.0,0,1.0,0,1.0
137,214,'1',0.00312011,0.029961,0.00967175,200.0,200.0,200.0,0.0,0.0,0.0,0.0,1,1,0.0,1,1.0,0,1.0,0,1.0,0,1.0
137,426,'1',0.00299838,0.028792,0.00929439,145.0,145.0,145.0,0.0,0.0,0.0,0.0,1,1,0.0,1,1.0,0,1.0,0,1.0,0,1.0
137,426,'2',0.003,0.02879,0.00929,320.3,320.3,320.3,0.0,0.0,0.0,0.0,1,1,0.0,1,1.0,0,1.0,0,1.0,0,1.0
138,137,'1',0.000555555,0.00378798,0.0,122.9,122.9,122.9,0.0,0.0,0.0,0.0,1,1,0.0,1,1.0,0,1.0,0,1.0,0,1.0
139,376,'1',0.00267603,0.0256967,0.00829519,185.0,185.0,185.0,0.0,0.0,0.0,0.0,1,1,0.0,1,1.0,0,1.0,0,1.0,0,1.0
140,139,'1',0.000600197,0.00318213,0.0,0.4,0.4,0.4,0.0,0.0,0.0,0.0,1,1,0.0,1,1.0,0,1.0,0,1.0,0,1.0
142,141,'1',0.000686707,0.00341671,0.0,209.8,209.8,209.8,0.0,0.0,0.0,0.0,1,1,0.0,1,1.0,0,1.0,0,1.0,0,1.0
143,247,'1',0.007537,0.07237,0.023362,400.0,400.0,400.0,0.0,0.0,0.0,0.0,1,1,0.0,1,1.0,0,1.0,0,1.0,0,1.0
143,338,'1',0.00211583,0.019409,0.0068781,250.0,250.0,250.0,0.0,0.0,0.0,0.0,1,1,0.0,1,1.0,0,1.0,0,1.0,0,1.0
143,401,'1',0.004057,0.038957,0.012576,480.0,480.0,480.0,0.0,0.0,0.0,0.0,1,1,0.0,1,1.0,0,1.0,0,1.0,0,1.0
143,452,'1',0.007537,0.07237,0.023362,350.0,350.0,350.0,0.0,0.0,0.0,0.0,1,1,0.0,1,1.0,0,1.0,0,1.0,0,1.0
146,162,'1',0.000284645,0.00408307,0.0730692,1100.0,1100.0,1100.0,0.0,0.0,0.0,0.0,1,1,0.0,1,1.0,0,1.0,0,1.0,0,1.0
146,195,'1',0.000327474,0.00433296,0.0913117,900.0,900.0,900.0,0.0,0.0,0.0,0.0,1,1,0.0,1,1.0,0,1.0,0,1.0,0,1.0
148,147,'1',0.000592694,0.00393511,0.0,102.4,102.4,102.4,0.0,0.0,0.0,0.0,1,1,0.0,1,1.0,0,1.0,0,1.0,0,1.0
149,81,'1',0.00287908,0.0264105,0.00935925,145.0,145.0,145.0,0.0,0.0,0.0,0.0,1,1,0.0,1,1.0,0,1.0,0,1.0,0,1.0
150,149,'1',0.000679998,0.00369307,0.0,2.4,2.4,2.4,0.0,0.0,0.0,0.0,1,1,0.0,1,1.0,0,1.0,0,1.0,0,1.0
151,23,'1',0.000181712,0.00260656,0.046646,1050.0,1050.0,1050.0,0.0,0.0,0.0,0.0,1,1,0.0,1,1.0,0,1.0,0,1.0,0,1.0
153,152,'1',0.000529458,0.00311241,0.0,130.1,130.1,130.1,0.0,0.0,0.0,0.0,1,1,0.0,1,1.0,0,1.0,0,1.0,0,1.0
154,429,'1',0.00211946,0.0203522,0.00656993,250.0,250.0,250.0,0.0,0.0,0.0,0.0,1,1,0.0,1,1.0,0,1.0,0,1.0,0,1.0
154,488,'1',0.008007,0.0734503,0.026029,185.0,185.0,185.0,0.0,0.0,0.0,0.0,1,1,0.0,1,1.0,0,1.0,0,1.0,0,1.0
155,154,'1',0.000532627,0.00300512,0.0,90.0,90.0,90.0,0.0,0.0,0.0,0.0,1,1,0.0,1,1.0,0,1.0,0,1.0,0,1.0
157,156,'1',0.000597448,0.00357888,0.0,164.3,164.3,164.3,0.0,0.0,0.0,0.0,1,1,0.0,1,1.0,0,1.0,0,1.0,0,1.0
158,233,'1',0.00609655,0.0559252,0.0198185,145.0,145.0,145.0,0.0,0.0,0.0,0.0,1,1,0.0,1,1.0,0,1.0,0,1.0,0,1.0
158,291,'1',0.00513331,0.0492927,0.0159123,220.0,220.0,220.0,0.0,0.0,0.0,0.0,1,1,0.0,1,1.0,0,1.0,0,1.0,0,1.0
159,158,'1',0.000600829,0.0038732,0.0,31.4,31.4,31.4,0.0,0.0,0.0,0.0,1,1,0.0,1,1.0,0,1.0,0,1.0,0,1.0
160,212,'1',0.00256703,0.02465,0.00795729,145.0,145.0,145.0,0.0,0.0,0.0,0.0,1,1,0.0,1,1.0,0,1.0,0,1.0,0,1.0
160,399,'1',0.0040147,0.0368278,0.0130509,145.0,145.0,145.0,0.0,0.0,0.0,0.0,1,1,0.0,1,1.0,0,1.0,0,1.0,0,1.0
161,160,'1',0.000555543,0.00356777,0.0,44.8,44.8,44.8,0.0,0.0,0.0,0.0,1,1,0.0,1,1.0,0,1.0,0,1.0,0,1.0
162,195,'1',0.00022552,0.00327545,0.0571594,1050.0,1050.0,1050.0,0.0,0.0,0.0,0.0,1,1,0.0,1,1.0,0,1.0,0,1.0,0,1.0
162,220,'1',0.00138972,0.018388,0.387505,1100.0,1100.0,1100.0,0.0,0.0,0.0,0.0,1,1,0.0,1,1.0,0,1.0,0,1.0,0,1.0
162,232,'1',0.000529374,0.00759357,0.135892,900.0,900.0,900.0,0.0,0.0,0.0,0.0,1,1,0.0,1,1.0,0,1.0,0,1.0,0,1.0
164,163,'1',0.000650023,0.00398739,0.0,174.5,174.5,174.5,0.0,0.0,0.0,0.0,1,1,0.0,1,1.0,0,1.0,0,1.0,0,1.0
165,123,'1',0.000216027,0.00313758,0.0547534,900.0,900.0,900.0,0.0,0.0,0.0,0.0,1,1,0.0,1,1.0,0,1.0,0,1.0,0,1.0
165,386,'1',0.000717614,0.0104226,0.181884,1000.0,1000.0,1000.0,0.0,0.0,0.0,0.0,1,1,0.0,1,1.0,0,1.0,0,1.0,0,1.0
166,228,'1',0.00484505,0.0444448,0.0157502,230.0,230.0,230.0,0.0,0.0,0.0,0.0,1,1,0.0,1,1.0,0,1.0,0,1.0,0,1.0
166,289,'1',0.00211343,0.0202943,0.00655123,270.0,270.0,270.0,0.0,0.0,0.0,0.0,1,1,0.0,1,1.0,0,1.0,0,1.0,0,1.0
170,226,'1',0.00463124,0.0424835,0.0150551,145.0,145.0,145.0,0.0,0.0,0.0,0.0,1,1,0.0,1,1.0,0,1.0,0,1.0,0,1.0
171,170,'1',0.000512598,0.00377412,0.0,20.9,20.9,20.9,0.0,0.0,0.0,0.0,1,1,0.0,1,1.0,0,1.0,0,1.0,0,1.0
172,244,'1',0.00329067,0.0315987,0.0102004,270.0,270.0,270.0,0.0,0.0,0.0,0.0,1,1,0.0,1,1.0,0,1.0,0,1.0,0,1.0
173,172,'1',0.000675383,0.00313387,0.0,4.7,4.7,4.7,0.0,0.0,0.0,0.0,1,1,0.0,1,1.0,0,1.0,0,1.0,0,1.0
174,172,'1',0.000585944,0.00303893,0.0,12.3,12.3,12.3,0.0,0.0,0.0,0.0,1,1,0.0,1,1.0,0,1.0,0,1.0,0,1.0
175,220,'1',0.00109884,0.0159595,0.278508,1050.0,1050.0,1050.0,0.0,0.0,0.0,0.0,1,1,0.0,1,1.0,0,1.0,0,1.0,0,1.0
177,176,'1',0.000557183,0.00364908,0.0,12.9,12.9,12.9,0.0,0.0,0.0,0.0,1,1,0.0,1,1.0,0,1.0,0,1.0,0,1.0
178,176,'1',0.000684427,0.00315566,0.0,10.7,10.7,10.7,0.0,0.0,0.0,0.0,1,1,0.0,1,1.0,0,1.0,0,1.0,0,1.0
179,291,'1',0.00596405,0.0572699,0.0184874,270.0,270.0,270.0,0.0,0.0,0.0,0.0,1,1,0.0,1,1.0,0,1.0,0,1.0,0,1.0
179,374,'1',0.00377362,0.0362363,0.0116975,145.0,145.0,145.0,0.0,0.0,0.0,0.0,1,1,0.0,1,1.0,0,1.0,0,1.0,0,1.0
180,179,'1',0.000694046,0.00330225,0.0,25.2,25.2,25.2,0.0,0.0,0.0,0.0,1,1,0.0,1,1.0,0,1.0,0,1.0,0,1.0
181,97,'1',0.00299237,0.0287344,0.00927578,145.0,145.0,145.0,0.0,0.0,0.0,0.0,1,1,0.0,1,1.0,0,1.0,0,1.0,0,1.0
181,487,'1',0.00275142,0.0264206,0.00852888,270.0,270.0,270.0,0.0,0.0,0.0,0.0,1,1,0.0,1,1.0,0,1.0,0,1.0,0,1.0
182,181,'1',0.000631056,0.00371534,0.0,145.7,145.7,145.7,0.0,0.0,0.0,0.0,1,1,0.0,1,1.0,0,1.0,0,1.0,0,1.0
183,247,'1',0.00196488,0.0188679,0.00609076,270.0,270.0,270.0,0.0,0.0,0.0,0.0,1,1,0.0,1,1.0,0,1.0,0,1.0,0,1.0
183,274,'1',0.00367252,0.0352655,0.0113841,145.0,145.0,145.0,0.0,0.0,0.0,0.0,1,1,0.0,1,1.0,0,1.0,0,1.0,0,1.0
184,183,'1',0.000541818,0.00300825,0.0,40.4,40.4,40.4,0.0,0.0,0.0,0.0,1,1,0.0,1,1.0,0,1.0,0,1.0,0,1.0
185,467,'1',0.00201629,0.018496,0.00655453,270.0,270.0,270.0,0.0,0.0,0.0,0.0,1,1,0.0,1,1.0,0,1.0,0,1.0,0,1.0
...
0 / END OF BRANCH DATA BEGIN TRANSFORMER DATA
8,7,0,'1',1,1,1,0.0,0.0,2,'            ',1,1,1.0,0,1.0,0,1.0,0,1.0,'            '
0.000355062,0.0129,567.0
1.0,138.0,0.0,567.0,567.0,567.0,0,0,1.5,0.51,1.5,0.51,159,0,0.0,0.0,0.0
1.0,345.0
9,7,0,'1',1,1,1,0.0,0.0,2,'            ',1,1,1.0,0,1.0,0,1.0,0,1.0,'            '
0.00012,0.01362,900.0
1.0,13.8,0.0,900.0,900.0,900.0,0,0,1.5,0.51,1.5,0.51,159,0,0.0,0.0,0.0
1.0,345.0
9,7,0,'2',1,1,1,0.0,0.0,2,'            ',1,1,1.0,0,1.0,0,1.0,0,1.0,'            '
0.00012,0.01362,900.0
1.0,13.8,0.0,900.0,900.0,900.0,0,0,1.5,0.51,1.5,0.51,159,0,0.0,0.0,0.0
1.0,345.0
15,14,0,'1',1,1,1,0.0,0.0,2,'            ',1,1,1.0,0,1.0,0,1.0,0,1.0,'            '
0.000207947,0.01122,682.0
1.0,138.0,0.0,682.0,682.0,682.0,0,0,1.5,0.51,1.5,0.51,159,0,0.0,0.0,0.0
1.0,345.0
16,14,0,'1',1,1,1,0.0,0.0,2,'            ',1,1,1.0,0,1.0,0,1.0,0,1.0,'            '
0.000325948,0.01202,596.0
1.0,13.8,0.0,596.0,596.0,596.0,0,0,1.5,0.51,1.5,0.51,159,0,0.0,0.0,0.0
1.0,345.0
17,14,0,'1',1,1,1,0.0,0.0,2,'            ',1,1,1.0,0,1.0,0,1.0,0,1.0,'            '
0.000279,0.01438,930.0
1.0,13.8,0.0,930.0,930.0,930.0,0,0,1.5,0.51,1.5,0.51,159,0,0.0,0.0,0.0
1.0,345.0
17,14,0,'2',1,1,1,0.0,0.0,2,'            ',1,1,1.0,0,1.0,0,1.0,0,1.0,'            '
0.000354,0.01438,930.0
1.0,13.8,0.0,930.0,930.0,930.0,0,0,1.5,0.51,1.5,0.51,159,0,0.0,0.0,0.0
1.0,345.0
18,14,0,'1',1,1,1,0.0,0.0,2,'            ',1,1,1.0,0,1.0,0,1.0,0,1.0,'            '
0.00141719,0.05115,340.0
1.0,13.8,0.0,340.0,340.0,340.0,0,0,1.5,0.51,1.5,0.51,159,0,0.0,0.0,0.0
1.0,345.0
24,23,0,'1',1,1,1,0.0,0.0,2,'            ',1,1,1.0,0,1.0,0,1.0,0,1.0,'            '
0.00033,0.01764,626.0
1.0,138.0,0.0,626.0,626.0,626.0,0,0,1.5,0.51,1.5,0.51,159,0,0.0,0.0,0.0
1.0,345.0
40,39,0,'1',1,1,1,0.0,0.0,2,'            ',1,1,1.0,0,1.0,0,1.0,0,1.0,'            '
0.0007,0.02531,428.0
1.0,138.0,0.0,428.0,428.0,428.0,0,0,1.5,0.51,1.5,0.51,159,0,0.0,0.0,0.0
1.0,345.0
49,48,0,'1',1,1,1,0.0,0.0,2,'            ',1,1,1.0,0,1.0,0,1.0,0,1.0,'            '
0.01331,0.27853,57.0
1.0,13.8,0.0,57.0,57.0,57.0,0,0,1.5,0.51,1.5,0.51,159,0,0.0,0.0,0.0
1.0,138.0
50,48,0,'1',1,1,1,0.0,0.0,2,'            ',1,1,1.0,0,1.0,0,1.0,0,1.0,'            '
0.00715,0.16356,100.0
1.0,13.8,0.0,100.0,100.0,100.0,0,0,1.5,0.51,1.5,0.51,159,0,0.0,0.0,0.0
1.0,138.0
58,57,0,'1',1,1,1,0.0,0.0,2,'            ',1,1,1.0,0,1.0,0,1.0,0,1.0,'            '
0.00012,0.01762,675.0
1.0,138.0,0.0,675.0,675.0,675.0,0,0,1.5,0.51,1.5,0.51,159,0,0.0,0.0,0.0
1.0,345.0
58,57,0,'2',1,1,1,0.0,0.0,2,'            ',1,1,1.0,0,1.0,0,1.0,0,1.0,'            '
0.00012,0.01762,675.0
1.0,138.0,0.0,675.0,675.0,675.0,0,0,1.5,0.51,1.5,0.51,159,0,0.0,0.0,0.0
1.0,345.0
63,62,0,'1',1,1,1,0.0,0.0,2,'            ',1,1,1.0,0,1.0,0,1.0,0,1.0,'            '
0.0032,0.16353,70.0
1.0,13.8,0.0,70.0,70.0,70.0,0,0,1.5,0.51,1.5,0.51,159,0,0.0,0.0,0.0
1.0,138.0
66,65,0,'1',1,1,1,0.0,0.0,2,'            ',1,1,1.0,0,1.0,0,1.0,0,1.0,'            '
0.000807929,0.03088,405.0
1.0,138.0,0.0,405.0,405.0,405.0,0,0,1.5,0.51,1.5,0.51,159,0,0.0,0.0,0.0
1.0,345.0
71,70,0,'1',1,1,1,0.0,0.0,2,'            ',1,1,1.0,0,1.0,0,1.0,0,1.0,'            '
0.00103,0.04472,133.0
1.0,13.8,0.0,133.0,133.0,133.0,0,0,1.5,0.51,1.5,0.51,159,0,0.0,0.0,0.0
1.0,138.0
72,70,0,'1',1,1,1,0.0,0.0,2,'            ',1,1,1.0,0,1.0,0,1.0,0,1.0,'            '
0.00292,0.14481,60.0
1.0,13.8,0.0,60.0,60.0,60.0,0,0,1.5,0.51,1.5,0.51,159,0,0.0,0.0,0.0
1.0,138.0
73,70,0,'1',1,1,1,0.0,0.0,2,'            ',1,1,1.0,0,1.0,0,1.0,0,1.0,'            '
0.0126963,0.27303,49.0
1.0,13.8,0.0,49.0,49.0,49.0,0,0,1.5,0.51,1.5,0.51,159,0,0.0,0.0,0.0
1.0,138.0
81,80,0,'1',1,1,1,0.0,0.0,2,'            ',1,1,1.0,0,1.0,0,1.0,0,1.0,'            '
0.00065,0.03481,529.0
1.0,138.0,0.0,529.0,529.0,529.0,0,0,1.5,0.51,1.5,0.51,159,0,0.0,0.0,0.0
1.0,345.0
82,80,0,'1',1,1,1,0.0,0.0,2,'            ',1,1,1.0,0,1.0,0,1.0,0,1.0,'            '
0.00043,0.03113,628.0
1.0,13.8,0.0,628.0,628.0,628.0,0,0,1.5,0.51,1.5,0.51,159,0,0.0,0.0,0.0
1.0,345.0
124,123,0,'1',1,1,1,0.0,0.0,2,'            ',1,1,1.0,0,1.0,0,1.0,0,1.0,'            '
0.0002,0.01438,488.0
1.0,138.0,0.0,488.0,488.0,488.0,0,0,1.5,0.51,1.5,0.51,159,0,0.0,0.0,0.0
1.0,345.0
125,123,0,'1',1,1,1,0.0,0.0,2,'            ',1,1,1.0,0,1.0,0,1.0,0,1.0,'            '
0.00028,0.04064,346.0
1.0,13.8,0.0,346.0,346.0,346.0,0,0,1.5,0.51,1.5,0.51,159,0,0.0,0.0,0.0
1.0,345.0
126,123,0,'1',1,1,1,0.0,0.0,2,'            ',1,1,1.0,0,1.0,0,1.0,0,1.0,'            '
0.00015,0.02189,352.0
1.0,13.8,0.0,352.0,352.0,352.0,0,0,1.5,0.51,1.5,0.51,159,0,0.0,0.0,0.0
1.0,345.0
127,123,0,'1',1,1,1,0.0,0.0,2,'            ',1,1,1.0,0,1.0,0,1.0,0,1.0,'            '
0.00038,0.04792,378.0
1.0,13.8,0.0,378.0,378.0,378.0,0,0,1.5,0.51,1.5,0.51,159,0,0.0,0.0,0.0
1.0,345.0
128,123,0,'1',1,1,1,0.0,0.0,2,'            ',1,1,1.0,0,1.0,0,1.0,0,1.0,'            '
0.00016,0.01585,391.0
1.0,13.8,0.0,391.0,391.0,391.0,0,0,1.5,0.51,1.5,0.51,159,0,0.0,0.0,0.0
1.0,345.0
144,143,0,'1',1,1,1,0.0,0.0,2,'            ',1,1,1.0,0,1.0,0,1.0,0,1.0,'            '
0.0011,0.033,650.0
1.0,13.8,0.0,650.0,650.0,650.0,0,0,1.5,0.51,1.5,0.51,159,0,0.0,0.0,0.0
1.0,138.0
144,143,0,'2',1,1,1,0.0,0.0,2,'            ',1,1,1.0,0,1.0,0,1.0,0,1.0,'            '
0.0011,0.033,650.0
1.0,13.8,0.0,650.0,650.0,650.0,0,0,1.5,0.51,1.5,0.51,159,0,0.0,0.0,0.0
1.0,138.0
145,143,0,'1',1,1,1,0.0,0.0,2,'            ',1,1,1.0,0,1.0,0,1.0,0,1.0,'            '
0.00119,0.0337,650.0
1.0,13.8,0.0,650.0,650.0,650.0,0,0,1.5,0.51,1.5,0.51,159,0,0.0,0.0,0.0
1.0,138.0
145,143,0,'2',1,1,1,0.0,0.0,2,'            ',1,1,1.0,0,1.0,0,1.0,0,1.0,'            '
0.00119,0.0337,650.0
1.0,13.8,0.0,650.0,650.0,650.0,0,0,1.5,0.51,1.5,0.51,159,0,0.0,0.0,0.0
1.0,138.0
147,146,0,'1',1,1,1,0.0,0.0,2,'            ',1,1,1.0,0,1.0,0,1.0,0,1.0,'            '
0.00100703,0.05565,272.0
1.0,138.0,0.0,272.0,272.0,272.0,0,0,1.5,0.51,1.5,0.51,159,0,0.0,0.0,0.0
1.0,345.0
152,151,0,'1',1,1,1,0.0,0.0,2,'            ',1,1,1.0,0,1.0,0,1.0,0,1.0,'            '
0.000341854,0.0203,570.0
1.0,138.0,0.0,570.0,570.0,570.0,0,0,1.5,0.51,1.5,0.51,159,0,0.0,0.0,0.0
1.0,345.0
163,162,0,'1',1,1,1,0.0,0.0,2,'            ',1,1,1.0,0,1.0,0,1.0,0,1.0,'            '
0.000344643,0.01982,510.0
1.0,138.0,0.0,510.0,510.0,510.0,0,0,1.5,0.51,1.5,0.51,159,0,0.0,0.0,0.0
1.0,345.0
163,162,0,'2',1,1,1,0.0,0.0,2,'            ',1,1,1.0,0,1.0,0,1.0,0,1.0,'            '
0.000365564,0.01982,510.0
1.0,138.0,0.0,510.0,510.0,510.0,0,0,1.5,0.51,1.5,0.51,159,0,0.0,0.0,0.0
1.0,345.0
166,165,0,'1',1,1,1,0.0,0.0,2,'            ',1,1,1.0,0,1.0,0,1.0,0,1.0,'            '
0.000183208,0.00871,606.0
1.0,138.0,0.0,606.0,606.0,606.0,0,0,1.5,0.51,1.5,0.51,159,0,0.0,0.0,0.0
1.0,345.0
167,165,0,'1',1,1,1,0.0,0.0,2,'            ',1,1,1.0,0,1.0,0,1.0,0,1.0,'            '
0.000463111,0.02157,411.0
1.0,13.8,0.0,411.0,411.0,411.0,0,0,1.5,0.51,1.5,0.51,159,0,0.0,0.0,0.0
1.0,345.0
168,165,0,'1',1,1,1,0.0,0.0,2,'            ',1,1,1.0,0,1.0,0,1.0,0,1.0,'            '
0.00029,0.03549,445.0
1.0,13.8,0.0,445.0,445.0,445.0,0,0,1.5,0.51,1.5,0.51,159,0,0.0,0.0,0.0
1.0,345.0
169,165,0,'1',1,1,1,0.0,0.0,2,'            ',1,1,1.0,0,1.0,0,1.0,0,1.0,'            '
0.00035,0.02558,543.0
1.0,13.8,0.0,543.0,543.0,543.0,0,0,1.5,0.51,1.5,0.51,159,0,0.0,0.0,0.0
1.0,345.0
176,175,0,'1',1,1,1,0.0,0.0,2,'            ',1,1,1.0,0,1.0,0,1.0,0,1.0,'            '
0.00039,0.03857,273.0
1.0,138.0,0.0,273.0,273.0,273.0,0,0,1.5,0.51,1.5,0.51,159,0,0.0,0.0,0.0
1.0,345.0
196,195,0,'1',1,1,1,0.0,0.0,2,'            ',1,1,1.0,0,1.0,0,1.0,0,1.0,'            '
0.00023,0.01443,560.0
1.0,138.0,0.0,560.0,560.0,560.0,0,0,1.5,0.51,1.5,0.51,159,0,0.0,0.0,0.0
1.0,345.0
197,195,0,'1',1,1,1,0.0,0.0,2,'            ',1,1,1.0,0,1.0,0,1.0,0,1.0,'            '
0.0006,0.03102,597.0
1.0,13.8,0.0,597.0,597.0,597.0,0,0,1.5,0.51,1.5,0.51,159,0,0.0,0.0,0.0
1.0,345.0
...